*Heading
** Job name: Job-Validation Model name: Model-Ref
** Generated by: Abaqus/CAE 2019
*Preprint, echo=NO, model=NO, history=NO, contact=NO
**
** PARTS
**
*Part, name=Part-1
*Node
      1,           0.,           0., 0.00791000016
      2,           0.,           0., 0.0158200003
      3,           0., 0.00400000019, 0.0158200003
      4,           0., 0.00400000019, 0.00791000016
      5, 0.00400000019,           0., 0.00791000016
      6, 0.00400000019,           0., 0.0158200003
      7, 0.00319903926, 0.00319498172, 0.0158200003
      8, 0.00311759231, 0.00311774807, 0.00791000109
      9,           0., 0.00499999989, 0.0158200003
     10,           0., 0.00499999989, 0.00791000016
     11, 0.00353553379, 0.00353553379, 0.0158200003
     12, 0.00353553379, 0.00353553379, 0.00791000016
     13,           0., 0.00499999989,           0.
     14,           0., 0.00400000019,           0.
     15, 0.00353553379, 0.00353553379,           0.
     16, 0.00321830041, 0.00317469239,           0.
     17,           0.,           0.,           0.
     18, 0.00400000019,           0.,           0.
     19, 0.00499999989,           0., 0.0158200003
     20, 0.00499999989,           0., 0.00791000016
** ... 3775 like lines cut
*Element, type=C3D8R
   1,  117,  675, 1906,  577,    1,   22,  367,   65
   2,  675,  676, 1907, 1906,   22,   23,  368,  367
   3,  676,  677, 1908, 1907,   23,   24,  369,  368
   4,  677,  678, 1909, 1908,   24,   25,  370,  369
   5,  678,  679, 1910, 1909,   25,   26,  371,  370
   6,  679,  680, 1911, 1910,   26,   27,  372,  371
   7,  680,  681, 1912, 1911,   27,   28,  373,  372
   8,  681,  682, 1913, 1912,   28,   29,  374,  373
   9,  682,  683, 1914, 1913,   29,   30,  375,  374
  10,  683,  684, 1915, 1914,   30,   31,  376,  375
  11,  684,  685, 1916, 1915,   31,   32,  377,  376
  12,  685,  686, 1917, 1916,   32,   33,  378,  377
  13,  686,  687, 1918, 1917,   33,   34,  379,  378
  14,  687,  688, 1919, 1918,   34,   35,  380,  379
  15,  688,  689, 1920, 1919,   35,   36,  381,  380
  16,  689,  131,  626, 1920,   36,    2,   37,  381
  17,  577, 1906, 1921,  578,   65,  367,  382,   64
  18, 1906, 1907, 1922, 1921,  367,  368,  383,  382
  19, 1907, 1908, 1923, 1922,  368,  369,  384,  383
  20, 1908, 1909, 1924, 1923,  369,  370,  385,  384
** ... 3052 like lines cut
*Nset, nset=_PickedSet2, internal, generate
    1,  3795,     1
*Elset, elset=_PickedSet2, internal, generate
    1,  3072,     1
** Section: Section-1
*Solid Section, elset=_PickedSet2, material=Material-Ref
,
*End Part
**  
*Part, name=Part-3
*Node
      1,           0., 0.00382267055,           0.
      2,           0.,           0.,           0.
      3,  0.003826648,           0.,           0.
      4, 0.00311814668, 0.00312737236,           0.
      5, 0.00499999989,           0.,           0.
      6, 0.00353109301, 0.00353996921,           0.
      7,           0., 0.00499999989,           0.
      8,           0., 0.00353285042,           0.
      9,           0., 0.00324165099,           0.
     10,           0., 0.00294919964,           0.
     11,           0., 0.00265581626,           0.
     12,           0., 0.00236177281,           0.
     13,           0., 0.00206726464,           0.
     14,           0., 0.00177242572,           0.
     15,           0., 0.00147735002,           0.
     16,           0., 0.00118210621,           0.
     17,           0., 0.000886750116,           0.
     18,           0., 0.000591334538,           0.
     19,           0., 0.000295782665,           0.
     20, 0.000295088772,           0.,           0.
** ... 284 like lines cut
*Element, type=R3D4
  1,   1,   8,  89,  55
  2,   8,   9,  90,  89
  3,   9,  10,  91,  90
  4,  10,  11,  92,  91
  5,  11,  12,  93,  92
  6,  12,  13,  94,  93
  7,  13,  14,  95,  94
  8,  14,  15,  96,  95
  9,  15,  16,  97,  96
 10,  16,  17,  98,  97
 11,  17,  18,  99,  98
 12,  18,  19, 100,  99
 13,  19,   2,  20, 100
 14,  55,  89, 101,  54
 15,  89,  90, 102, 101
 16,  90,  91, 103, 102
 17,  91,  92, 104, 103
 18,  92,  93, 105, 104
 19,  93,  94, 106, 105
 20,  94,  95, 107, 106
** ... 253 like lines cut
*Node
    305,           0., 0.00249999994,           0.
*Nset, nset=Part-3-RefPt_, internal
305, 
*Elset, elset=Part-3, generate
   1,  273,    1
*End Part
**  
*Part, name=die
*Node
      1,           0., -0.0120000001, -0.00499999989
      2,           0., -0.0116999997, -0.00499999989
      3,           0., -0.0114000002, -0.00499999989
      4,           0., -0.0110999998, -0.00499999989
      5,           0., -0.0108000003, -0.00499999989
      6,           0., -0.0104999999, -0.00499999989
      7,           0., -0.0102000004, -0.00499999989
      8,           0., -0.00989999995, -0.00499999989
      9,           0., -0.00960000046, -0.00499999989
     10,           0., -0.00930000003, -0.00499999989
     11,           0., -0.00899999961, -0.00499999989
     12,           0., -0.00870000012, -0.00499999989
     13,           0., -0.0083999997, -0.00499999989
     14,           0., -0.00810000021, -0.00499999989
     15,           0., -0.00780000025, -0.00499999989
     16,           0., -0.00749999983, -0.00499999989
     17,           0., -0.00719999988, -0.00499999989
     18,           0., -0.00689999992, -0.00499999989
     19,           0., -0.00659999996, -0.00499999989
     20,           0., -0.00630000001, -0.00499999989
** ... 2302 like lines cut
*Element, type=R3D4
   1,    1,    2,   88,   87
   2,    2,    3,   89,   88
   3,    3,    4,   90,   89
   4,    4,    5,   91,   90
   5,    5,    6,   92,   91
   6,    6,    7,   93,   92
   7,    7,    8,   94,   93
   8,    8,    9,   95,   94
   9,    9,   10,   96,   95
  10,   10,   11,   97,   96
  11,   11,   12,   98,   97
  12,   12,   13,   99,   98
  13,   13,   14,  100,   99
  14,   14,   15,  101,  100
  15,   15,   16,  102,  101
  16,   16,   17,  103,  102
  17,   17,   18,  104,  103
  18,   18,   19,  105,  104
  19,   19,   20,  106,  105
  20,   20,   21,  107,  106
** ... 2190 like lines cut
*Node
   2323, 0.00353553379, 0.0135000004, -0.00353553379
*Nset, nset=die-RefPt_, internal
2323, 
*Elset, elset=die, generate
    1,  2210,     1
*End Part
**  
**
** ASSEMBLY
**
*Assembly, name=Assembly
**  
*Instance, name=Part-1-1, part=Part-1
          0.,           0.,           0.
          0.,           0.,           0., -1.00000001268805,           0.,           0., 89.9999992730282
*End Instance
**  
*Instance, name=Part-3-1, part=Part-3
          0.,      0.01632,           0.
          0.,      0.01632,           0., -1.00000001268805,      0.01632,           0., 89.9999992730282
*End Instance
**  
*Instance, name=die-1, part=die
          0.,      0.00716,           0.
*End Instance
**  
*Instance, name=Part-3-2, part=Part-3
          0.,           0.,           0.
          0.,           0.,           0., -1.00000001268805,           0.,           0., 89.9999992730282
*End Instance
**  
*Nset, nset=Set-1, instance=Part-3-1
 305,
*Nset, nset=_PickedSet15, internal, instance=Part-1-1
    1,    2,    5,    6,   17,   18,   19,   20,   21,   22,   23,   24,   25,   26,   27,   28
   29,   30,   31,   32,   33,   34,   35,   36,   66,   67,   68,   69,   70,   71,   72,   73
   74,   75,   76,   77,   78,   79,   80,  117,  118,  119,  120,  121,  122,  123,  131,  132
  133,  134,  135,  136,  137,  269,  270,  271,  272,  273,  274,  275,  276,  277,  278,  279
  280,  281,  282,  283,  291,  292,  293,  294,  295,  296,  297,  298,  299,  300,  301,  302
  303,  304,  305,  306,  307,  308,  309,  310,  311,  312,  313,  321,  329,  330,  331,  332
  333,  334,  335,  336,  337,  338,  339,  340,  341,  342,  343,  344,  345,  346,  347,  348
  349,  350,  351,  352,  353,  354,  355,  356,  357,  358,  359,  675,  676,  677,  678,  679
  680,  681,  682,  683,  684,  685,  686,  687,  688,  689,  690,  691,  692,  693,  694,  695
  696,  697,  698,  699,  700,  701,  702,  703,  704,  705,  706,  707,  708,  709,  710,  711
  712,  713,  714,  715,  716,  717,  718,  719,  720,  721,  722,  723,  724,  725,  726,  727
  728,  729,  730,  731,  732,  733,  734,  735,  736,  737,  738,  739,  740,  741,  742,  743
  744,  745,  746,  747,  748,  749,  750,  751,  752,  753,  754,  755,  756,  757,  758,  759
  760,  761,  762,  763,  764,  765,  766,  767,  768,  769,  770,  771,  772,  773,  774,  775
  776,  777,  778,  779, 1491, 1492, 1493, 1494, 1495, 1496, 1497, 1498, 1499, 1500, 1501, 1502
 1503, 1504, 1505, 1506, 1507, 1508, 1509, 1510, 1511, 1512, 1513, 1514, 1515, 1516, 1517, 1518
 1519, 1520, 1521, 1522, 1523, 1524, 1525, 1526, 1527, 1528, 1529, 1530, 1531, 1532, 1533, 1534
 1535, 1536, 1537, 1538, 1539, 1540, 1541, 1542, 1543, 1544, 1545, 1546, 1547, 1548, 1549, 1550
 1551, 1552, 1553, 1554, 1555, 1556, 1557, 1558, 1559, 1560, 1561, 1562, 1563, 1564, 1565, 1566
 1567, 1568, 1569, 1570, 1571, 1572, 1573, 1574, 1575, 1576, 1577, 1578, 1579, 1580, 1581, 1582
 1583, 1584, 1585, 1586, 1587, 1588, 1589, 1590, 1591, 1592, 1593, 1594, 1595, 1764, 1765, 1766
 1767, 1768, 1769, 1770, 1771, 1772, 1773, 1774, 1775, 1776, 1777, 1778, 1779, 1780, 1781, 1782
 1783, 1784, 1785, 1786, 1787, 1788, 1789, 1790, 1791, 1792, 1793
*Elset, elset=_PickedSet15, internal, instance=Part-1-1
    1,    2,    3,    4,    5,    6,    7,    8,    9,   10,   11,   12,   13,   14,   15,   16
  129,  130,  131,  132,  133,  134,  135,  136,  137,  138,  139,  140,  141,  142,  143,  144
  257,  258,  259,  260,  261,  262,  263,  264,  265,  266,  267,  268,  269,  270,  271,  272
  385,  386,  387,  388,  389,  390,  391,  392,  393,  394,  395,  396,  397,  398,  399,  400
  513,  514,  515,  516,  517,  518,  519,  520,  521,  522,  523,  524,  525,  526,  527,  528
  641,  642,  643,  644,  645,  646,  647,  648,  649,  650,  651,  652,  653,  654,  655,  656
  769,  770,  771,  772,  773,  774,  775,  776,  777,  778,  779,  780,  781,  782,  783,  784
  897,  898,  899,  900,  901,  902,  903,  904,  905,  906,  907,  908,  909,  910,  911,  912
 1544, 1552, 1560, 1568, 1576, 1584, 1592, 1600, 1608, 1616, 1624, 1632, 1640, 1648, 1656, 1664
 1672, 1680, 1688, 1696, 1704, 1712, 1720, 1728, 1736, 1744, 1752, 1760, 1768, 1776, 1784, 1792
 1800, 1808, 1816, 1824, 1832, 1840, 1848, 1856, 1864, 1872, 1880, 1888, 1896, 1904, 1912, 1920
 1928, 1936, 1944, 1952, 1960, 1968, 1976, 1984, 1992, 2000, 2008, 2016, 2024, 2032, 2040, 2048
 2056, 2064, 2072, 2080, 2088, 2096, 2104, 2112, 2120, 2128, 2136, 2144, 2152, 2160, 2168, 2176
 2184, 2192, 2200, 2208, 2216, 2224, 2232, 2240, 2248, 2256, 2264, 2272, 2280, 2288, 2296, 2304
 2312, 2320, 2328, 2336, 2344, 2352, 2360, 2368, 2376, 2384, 2392, 2400, 2408, 2416, 2424, 2432
 2440, 2448, 2456, 2464, 2472, 2480, 2488, 2496, 2504, 2512, 2520, 2528, 2536, 2544, 2552, 2560
 2561, 2562, 2577, 2578, 2593, 2594, 2609, 2610, 2625, 2626, 2641, 2642, 2657, 2658, 2673, 2674
 2689, 2690, 2705, 2706, 2721, 2722, 2737, 2738, 2753, 2754, 2769, 2770, 2785, 2786, 2801, 2802
 2817, 2818, 2819, 2820, 2821, 2822, 2823, 2824, 2825, 2826, 2827, 2828, 2829, 2830, 2831, 2832
 2833, 2834, 2835, 2836, 2837, 2838, 2839, 2840, 2841, 2842, 2843, 2844, 2845, 2846, 2847, 2848
*Nset, nset=_PickedSet16, internal, instance=Part-1-1
    1,    2,    3,    4,    9,   10,   13,   14,   17,   22,   23,   24,   25,   26,   27,   28
   29,   30,   31,   32,   33,   34,   35,   36,   37,   38,   39,   40,   41,   42,   43,   44
   45,   46,   47,   48,   49,   50,   51,   52,   53,   54,   55,   56,   57,   58,   59,   60
   61,   62,   63,   64,   65,  138,  139,  140,  141,  142,  143,  144,  145,  146,  147,  148
  149,  150,  151,  152,  153,  154,  186,  187,  188,  189,  190,  191,  192,  193,  194,  195
  196,  197,  198,  199,  200,  201,  202,  203,  204,  205,  206,  207,  208,  209,  210,  211
  212,  213,  214,  215,  216,  262,  263,  264,  265,  266,  267,  268,  269,  270,  271,  272
  273,  274,  275,  276,  277,  278,  279,  280,  281,  282,  283,  367,  368,  369,  370,  371
  372,  373,  374,  375,  376,  377,  378,  379,  380,  381,  382,  383,  384,  385,  386,  387
  388,  389,  390,  391,  392,  393,  394,  395,  396,  397,  398,  399,  400,  401,  402,  403
  404,  405,  406,  407,  408,  409,  410,  411,  412,  413,  414,  415,  416,  417,  418,  419
  420,  421,  422,  423,  424,  425,  426,  427,  428,  429,  430,  431,  432,  433,  434,  435
  436,  437,  438,  439,  440,  441,  442,  443,  444,  445,  446,  447,  448,  449,  450,  451
  452,  453,  454,  455,  456,  457,  458,  459,  460,  461,  462,  463,  464,  465,  466,  467
  468,  469,  470,  471,  885,  886,  887,  888,  889,  890,  891,  892,  893,  894,  895,  896
  897,  898,  899, 1034, 1035, 1036, 1037, 1038, 1039, 1040, 1041, 1042, 1043, 1044, 1045, 1046
 1047, 1048, 1281, 1282, 1283, 1284, 1285, 1286, 1287, 1288, 1289, 1290, 1291, 1292, 1293, 1294
 1295, 1296, 1297, 1298, 1299, 1300, 1301, 1302, 1303, 1304, 1305, 1306, 1307, 1308, 1309, 1310
 1311, 1312, 1313, 1314, 1315, 1316, 1317, 1318, 1319, 1320, 1321, 1322, 1323, 1324, 1325, 1326
 1327, 1328, 1329, 1330, 1331, 1332, 1333, 1334, 1335, 1336, 1337, 1338, 1339, 1340, 1341, 1342
 1343, 1344, 1345, 1346, 1347, 1348, 1349, 1350, 1351, 1352, 1353, 1354, 1355, 1356, 1357, 1358
 1359, 1360, 1361, 1362, 1363, 1364, 1365, 1366, 1367, 1368, 1369, 1370, 1371, 1372, 1373, 1374
 1375, 1376, 1377, 1378, 1379, 1380, 1381, 1382, 1383, 1384, 1385
*Elset, elset=_PickedSet16, internal, instance=Part-1-1
    1,    2,    3,    4,    5,    6,    7,    8,    9,   10,   11,   12,   13,   14,   15,   16
   17,   18,   19,   20,   21,   22,   23,   24,   25,   26,   27,   28,   29,   30,   31,   32
   33,   34,   35,   36,   37,   38,   39,   40,   41,   42,   43,   44,   45,   46,   47,   48
   49,   50,   51,   52,   53,   54,   55,   56,   57,   58,   59,   60,   61,   62,   63,   64
   65,   66,   67,   68,   69,   70,   71,   72,   73,   74,   75,   76,   77,   78,   79,   80
   81,   82,   83,   84,   85,   86,   87,   88,   89,   90,   91,   92,   93,   94,   95,   96
   97,   98,   99,  100,  101,  102,  103,  104,  105,  106,  107,  108,  109,  110,  111,  112
  113,  114,  115,  116,  117,  118,  119,  120,  121,  122,  123,  124,  125,  126,  127,  128
 1025, 1026, 1027, 1028, 1029, 1030, 1031, 1032, 1033, 1034, 1035, 1036, 1037, 1038, 1039, 1040
 1041, 1042, 1043, 1044, 1045, 1046, 1047, 1048, 1049, 1050, 1051, 1052, 1053, 1054, 1055, 1056
 1281, 1282, 1283, 1284, 1285, 1286, 1287, 1288, 1289, 1290, 1291, 1292, 1293, 1294, 1295, 1296
 1297, 1298, 1299, 1300, 1301, 1302, 1303, 1304, 1305, 1306, 1307, 1308, 1309, 1310, 1311, 1312
 1537, 1538, 1539, 1540, 1541, 1542, 1543, 1544, 1545, 1546, 1547, 1548, 1549, 1550, 1551, 1552
 1553, 1554, 1555, 1556, 1557, 1558, 1559, 1560, 1561, 1562, 1563, 1564, 1565, 1566, 1567, 1568
 1569, 1570, 1571, 1572, 1573, 1574, 1575, 1576, 1577, 1578, 1579, 1580, 1581, 1582, 1583, 1584
 1585, 1586, 1587, 1588, 1589, 1590, 1591, 1592, 1593, 1594, 1595, 1596, 1597, 1598, 1599, 1600
 1601, 1602, 1603, 1604, 1605, 1606, 1607, 1608, 1609, 1610, 1611, 1612, 1613, 1614, 1615, 1616
 1617, 1618, 1619, 1620, 1621, 1622, 1623, 1624, 1625, 1626, 1627, 1628, 1629, 1630, 1631, 1632
 1633, 1634, 1635, 1636, 1637, 1638, 1639, 1640, 1641, 1642, 1643, 1644, 1645, 1646, 1647, 1648
 1649, 1650, 1651, 1652, 1653, 1654, 1655, 1656, 1657, 1658, 1659, 1660, 1661, 1662, 1663, 1664
*Nset, nset=_PickedSet17, internal, instance=die-1
 2323,
*Nset, nset=_PickedSet18, internal, instance=Part-3-2
 305,
*Nset, nset=_PickedSet19, internal, instance=Part-3-1
 305,
*Elset, elset=_made_S2, internal, instance=Part-1-1
    1,    2,    3,    4,    5,    6,    7,    8,    9,   10,   11,   12,   13,   14,   15,   16
   17,   18,   19,   20,   21,   22,   23,   24,   25,   26,   27,   28,   29,   30,   31,   32
   33,   34,   35,   36,   37,   38,   39,   40,   41,   42,   43,   44,   45,   46,   47,   48
   49,   50,   51,   52,   53,   54,   55,   56,   57,   58,   59,   60,   61,   62,   63,   64
   65,   66,   67,   68,   69,   70,   71,   72,   73,   74,   75,   76,   77,   78,   79,   80
   81,   82,   83,   84,   85,   86,   87,   88,   89,   90,   91,   92,   93,   94,   95,   96
   97,   98,   99,  100,  101,  102,  103,  104,  105,  106,  107,  108,  109,  110,  111,  112
  113,  114,  115,  116,  117,  118,  119,  120,  121,  122,  123,  124,  125,  126,  127,  128
 1025, 1026, 1027, 1028, 1029, 1030, 1031, 1032, 1033, 1034, 1035, 1036, 1037, 1038, 1039, 1040
 1041, 1042, 1043, 1044, 1045, 1046, 1047, 1048, 1049, 1050, 1051, 1052, 1053, 1054, 1055, 1056
 1281, 1282, 1283, 1284, 1285, 1286, 1287, 1288, 1289, 1290, 1291, 1292, 1293, 1294, 1295, 1296
 1297, 1298, 1299, 1300, 1301, 1302, 1303, 1304, 1305, 1306, 1307, 1308, 1309, 1310, 1311, 1312
 1537, 1538, 1539, 1540, 1541, 1542, 1543, 1544, 1545, 1546, 1547, 1548, 1549, 1550, 1551, 1552
 1553, 1554, 1555, 1556, 1557, 1558, 1559, 1560, 1561, 1562, 1563, 1564, 1565, 1566, 1567, 1568
 1569, 1570, 1571, 1572, 1573, 1574, 1575, 1576, 1577, 1578, 1579, 1580, 1581, 1582, 1583, 1584
 1585, 1586, 1587, 1588, 1589, 1590, 1591, 1592, 1593, 1594, 1595, 1596, 1597, 1598, 1599, 1600
 1601, 1602, 1603, 1604, 1605, 1606, 1607, 1608, 1609, 1610, 1611, 1612, 1613, 1614, 1615, 1616
 1617, 1618, 1619, 1620, 1621, 1622, 1623, 1624, 1625, 1626, 1627, 1628, 1629, 1630, 1631, 1632
 1633, 1634, 1635, 1636, 1637, 1638, 1639, 1640, 1641, 1642, 1643, 1644, 1645, 1646, 1647, 1648
 1649, 1650, 1651, 1652, 1653, 1654, 1655, 1656, 1657, 1658, 1659, 1660, 1661, 1662, 1663, 1664
 2561, 2562, 2563, 2564, 2565, 2566, 2567, 2568, 2569, 2570, 2571, 2572, 2573, 2574, 2575, 2576
 2817, 2818, 2819, 2820, 2821, 2822, 2823, 2824, 2825, 2826, 2827, 2828, 2829, 2830, 2831, 2832
 2833, 2834, 2835, 2836, 2837, 2838, 2839, 2840, 2841, 2842, 2843, 2844, 2845, 2846, 2847, 2848
*Elset, elset=_made_S4, internal, instance=Part-1-1
   16,   32,   48,   64,   80,   96,  112,  128,  144,  160,  176,  192,  208,  224,  240,  256
  272,  288,  304,  320,  336,  352,  368,  384,  400,  416,  432,  448,  464,  480,  496,  512
  528,  544,  560,  576,  592,  608,  624,  640,  656,  672,  688,  704,  720,  736,  752,  768
  784,  800,  816,  832,  848,  864,  880,  896,  912,  928,  944,  960,  976,  992, 1008, 1024
 1026, 1028, 1030, 1032, 1034, 1036, 1038, 1040, 1042, 1044, 1046, 1048, 1050, 1052, 1054, 1056
 1058, 1060, 1062, 1064, 1066, 1068, 1070, 1072, 1074, 1076, 1078, 1080, 1082, 1084, 1086, 1088
 1090, 1092, 1094, 1096, 1098, 1100, 1102, 1104, 1106, 1108, 1110, 1112, 1114, 1116, 1118, 1120
 1122, 1124, 1126, 1128, 1130, 1132, 1134, 1136, 1138, 1140, 1142, 1144, 1146, 1148, 1150, 1152
 1154, 1156, 1158, 1160, 1162, 1164, 1166, 1168, 1170, 1172, 1174, 1176, 1178, 1180, 1182, 1184
 1186, 1188, 1190, 1192, 1194, 1196, 1198, 1200, 1202, 1204, 1206, 1208, 1210, 1212, 1214, 1216
 1218, 1220, 1222, 1224, 1226, 1228, 1230, 1232, 1234, 1236, 1238, 1240, 1242, 1244, 1246, 1248
 1250, 1252, 1254, 1256, 1258, 1260, 1262, 1264, 1266, 1268, 1270, 1272, 1274, 1276, 1278, 1280
 1296, 1312, 1328, 1344, 1360, 1376, 1392, 1408, 1424, 1440, 1456, 1472, 1488, 1504, 1520, 1536
 1544, 1552, 1560, 1568, 1576, 1584, 1592, 1600, 1608, 1616, 1624, 1632, 1640, 1648, 1656, 1664
 1672, 1680, 1688, 1696, 1704, 1712, 1720, 1728, 1736, 1744, 1752, 1760, 1768, 1776, 1784, 1792
 1800, 1808, 1816, 1824, 1832, 1840, 1848, 1856, 1864, 1872, 1880, 1888, 1896, 1904, 1912, 1920
 1928, 1936, 1944, 1952, 1960, 1968, 1976, 1984, 1992, 2000, 2008, 2016, 2024, 2032, 2040, 2048
 2056, 2064, 2072, 2080, 2088, 2096, 2104, 2112, 2120, 2128, 2136, 2144, 2152, 2160, 2168, 2176
 2184, 2192, 2200, 2208, 2216, 2224, 2232, 2240, 2248, 2256, 2264, 2272, 2280, 2288, 2296, 2304
 2312, 2320, 2328, 2336, 2344, 2352, 2360, 2368, 2376, 2384, 2392, 2400, 2408, 2416, 2424, 2432
** ... 17 like lines cut
*Elset, elset=_made_S3, internal, instance=Part-1-1
    1,    2,    3,    4,    5,    6,    7,    8,    9,   10,   11,   12,   13,   14,   15,   16
  129,  130,  131,  132,  133,  134,  135,  136,  137,  138,  139,  140,  141,  142,  143,  144
  257,  258,  259,  260,  261,  262,  263,  264,  265,  266,  267,  268,  269,  270,  271,  272
  385,  386,  387,  388,  389,  390,  391,  392,  393,  394,  395,  396,  397,  398,  399,  400
  513,  514,  515,  516,  517,  518,  519,  520,  521,  522,  523,  524,  525,  526,  527,  528
  641,  642,  643,  644,  645,  646,  647,  648,  649,  650,  651,  652,  653,  654,  655,  656
  769,  770,  771,  772,  773,  774,  775,  776,  777,  778,  779,  780,  781,  782,  783,  784
  897,  898,  899,  900,  901,  902,  903,  904,  905,  906,  907,  908,  909,  910,  911,  912
 1025, 1026, 1057, 1058, 1089, 1090, 1121, 1122, 1153, 1154, 1185, 1186, 1217, 1218, 1249, 1250
 1281, 1282, 1283, 1284, 1285, 1286, 1287, 1288, 1289, 1290, 1291, 1292, 1293, 1294, 1295, 1296
 1313, 1314, 1315, 1316, 1317, 1318, 1319, 1320, 1321, 1322, 1323, 1324, 1325, 1326, 1327, 1328
 1345, 1346, 1347, 1348, 1349, 1350, 1351, 1352, 1353, 1354, 1355, 1356, 1357, 1358, 1359, 1360
 1377, 1378, 1379, 1380, 1381, 1382, 1383, 1384, 1385, 1386, 1387, 1388, 1389, 1390, 1391, 1392
 1409, 1410, 1411, 1412, 1413, 1414, 1415, 1416, 1417, 1418, 1419, 1420, 1421, 1422, 1423, 1424
 1441, 1442, 1443, 1444, 1445, 1446, 1447, 1448, 1449, 1450, 1451, 1452, 1453, 1454, 1455, 1456
 1473, 1474, 1475, 1476, 1477, 1478, 1479, 1480, 1481, 1482, 1483, 1484, 1485, 1486, 1487, 1488
 1505, 1506, 1507, 1508, 1509, 1510, 1511, 1512, 1513, 1514, 1515, 1516, 1517, 1518, 1519, 1520
 1537, 1538, 1539, 1540, 1541, 1542, 1543, 1544, 1665, 1666, 1667, 1668, 1669, 1670, 1671, 1672
 1793, 1794, 1795, 1796, 1797, 1798, 1799, 1800, 1921, 1922, 1923, 1924, 1925, 1926, 1927, 1928
 2049, 2050, 2051, 2052, 2053, 2054, 2055, 2056, 2177, 2178, 2179, 2180, 2181, 2182, 2183, 2184
** ... 4 like lines cut
*Surface, type=ELEMENT, name=made
_made_S2, S2
_made_S4, S4
_made_S3, S3
*Elset, elset=__PickedSurf10_SNEG, internal, instance=die-1, generate
    1,  2210,     1
*Surface, type=ELEMENT, name=_PickedSurf10, internal
__PickedSurf10_SNEG, SNEG
*Elset, elset=__PickedSurf13_SNEG, internal, instance=Part-3-1, generate
   1,  273,    1
*Surface, type=ELEMENT, name=_PickedSurf13, internal
__PickedSurf13_SNEG, SNEG
*Elset, elset=__PickedSurf14_SPOS, internal, instance=Part-3-2, generate
   1,  273,    1
*Surface, type=ELEMENT, name=_PickedSurf14, internal
__PickedSurf14_SPOS, SPOS
*Rigid Body, ref node=Part-3-1.Part-3-RefPt_, elset=Part-3-1.Part-3
*Rigid Body, ref node=die-1.die-RefPt_, elset=die-1.die
*Rigid Body, ref node=Part-3-2.Part-3-RefPt_, elset=Part-3-2.Part-3
*End Assembly
** 
** MATERIALS
** 
*Material, name=Material-Ref
*Cap Plasticity, dependencies=1
     24180.7,  71.1155, 0.381106,       0.,     0.02,       1., ,     0.42
     35786.3,  71.1015, 0.384638,       0.,     0.02,       1., ,     0.45
      52962.,  71.0824, 0.388571,       0.,     0.02,       1., ,     0.48
     78381.3,  71.0569, 0.392952,       0.,     0.02,       1., ,     0.51
     116001.,  71.0235, 0.397829,       0.,     0.02,       1., ,     0.54
     171675.,  70.9803, 0.403261,       0.,     0.02,       1., ,     0.57
     254071.,  70.9253, 0.409309,       0.,     0.02,       1., ,      0.6
     376013.,  70.8559, 0.416044,       0.,     0.02,       1., ,     0.63
     556482.,  70.7696, 0.423544,       0.,     0.02,       1., ,     0.66
     823567.,  70.6631, 0.431896,       0.,     0.02,       1., ,     0.69
 1.21884e+06,  70.5329, 0.441196,       0.,     0.02,       1., ,     0.72
 1.80383e+06,  70.3752, 0.451552,       0.,     0.02,       1., ,     0.75
 2.66958e+06,  70.1855, 0.463084,       0.,     0.02,       1., ,     0.78
 3.95085e+06,  69.9589, 0.475926,       0.,     0.02,       1., ,     0.81
 5.84706e+06,  69.6902, 0.490226,       0.,     0.02,       1., ,     0.84
 8.65338e+06,  69.3733,  0.50615,       0.,     0.02,       1., ,     0.87
 1.28066e+07,  69.0017, 0.523883,       0.,     0.02,       1., ,      0.9
*Cap Hardening
     433300.,       0.
 1.93878e+07, 0.350909
  2.7551e+07,     0.42
 3.77551e+07, 0.470909
 4.59184e+07, 0.503636
 5.91837e+07, 0.554545
 6.02041e+07, 0.558182
 6.83673e+07, 0.589091
  7.7551e+07, 0.616364
 8.36735e+07, 0.645455
 9.18367e+07, 0.665455
  1.0102e+08, 0.681818
 1.11224e+08, 0.710909
 1.26531e+08, 0.732727
 1.46939e+08, 0.770909
  1.7551e+08, 0.781818
 2.16327e+08, 0.794545
*Depvar
      1,
*Elastic, dependencies=1
 1.07586e+09, 0.0677116, ,      0.42
 1.25995e+09, 0.0702767, ,      0.45
  1.5029e+09, 0.0730828, ,      0.48
 1.82351e+09, 0.0761527, ,      0.51
 2.24662e+09,  0.079511, ,      0.54
 2.80499e+09, 0.0831851, ,      0.57
 3.54187e+09, 0.0872044, ,       0.6
 4.51432e+09, 0.0916015, ,      0.63
 5.79765e+09, 0.0964119, ,      0.66
 7.49124e+09,  0.101674, ,      0.69
 9.72625e+09,  0.107431, ,      0.72
 1.26758e+10,   0.11373, ,      0.75
 1.65682e+10,   0.12062, ,      0.78
  2.1705e+10,  0.128157, ,      0.81
  2.8484e+10,  0.136404, ,      0.84
 3.74301e+10,  0.145425, ,      0.87
 4.92362e+10,  0.155294, ,       0.9
*User Defined Field
*Material, name=Material-test
*Cap Plasticity
353976.,  70.8676, 0.414959,       0.,     0.02,       1.
*Cap Hardening
     433300.,       0.
 1.93878e+08, 0.350909
  2.7551e+08,     0.42
 3.77551e+08, 0.470909
 4.59184e+08, 0.503636
 5.91837e+08, 0.554545
 6.02041e+08, 0.558182
 6.83673e+08, 0.589091
  7.7551e+08, 0.616364
 8.36735e+08, 0.645455
 9.18367e+08, 0.665455
  1.0102e+09, 0.681818
 1.11224e+09, 0.710909
 1.26531e+09, 0.732727
 1.46939e+09, 0.770909
  1.7551e+09, 0.781818
 2.16327e+09, 0.794545
*Elastic
 4.35e+09, 0.0908981
*User Defined Field
** 
** INTERACTION PROPERTIES
** 
*Surface Interaction, name=IntProp-1
1.,
*Friction, slip tolerance=0.005
 0.08,
*Surface Behavior, pressure-overclosure=HARD
** 
** BOUNDARY CONDITIONS
** 
** Name: BC-1 Type: Symmetry/Antisymmetry/Encastre
*Boundary
_PickedSet15, ZSYMM
** Name: BC-2 Type: Symmetry/Antisymmetry/Encastre
*Boundary
_PickedSet16, XSYMM
** Name: BC-3 Type: Symmetry/Antisymmetry/Encastre
*Boundary
_PickedSet17, ENCASTRE
** Name: BC-4 Type: Symmetry/Antisymmetry/Encastre
*Boundary
_PickedSet18, ENCASTRE
** Name: BC-5 Type: Displacement/Rotation
*Boundary
_PickedSet19, 1, 1
_PickedSet19, 3, 3
_PickedSet19, 4, 4
_PickedSet19, 5, 5
_PickedSet19, 6, 6
** 
** INTERACTIONS
** 
** Interaction: Int-1
*Contact Pair, interaction=IntProp-1, type=SURFACE TO SURFACE
made, _PickedSurf10
** Interaction: Int-2
*Contact Pair, interaction=IntProp-1, type=SURFACE TO SURFACE
made, _PickedSurf13
** Interaction: Int-3
*Contact Pair, interaction=IntProp-1, type=SURFACE TO SURFACE
made, _PickedSurf14
** ----------------------------------------------------------------
** 
** STEP: Loading
** 
*Step, name=Loading, nlgeom=YES, inc=1000
*Static
0.01, 1., 1e-10, 0.05
** 
** BOUNDARY CONDITIONS
** 
** Name: BC-5 Type: Displacement/Rotation
*Boundary
_PickedSet19, 2, 2, -0.0087264
** 
** CONTROLS
** 
*Controls, reset
*Controls, parameters=time incrementation
, , , , , , , 20, , , 
0.8, 0.8, , , 0.8, 0.8, , 
** 
** OUTPUT REQUESTS
** 
*Restart, write, frequency=0
** 
** FIELD OUTPUT: F-Output-1
** 
*Output, field
*Node Output
RF, U
*Element Output, directions=YES
E, FV, PE, PEQC, S, PEEQ
** 
** HISTORY OUTPUT: H-Output-3
** 
*Output, history
*Contact Output, master=_PickedSurf13, slave=made
CFN2, 
** 
** HISTORY OUTPUT: H-Output-2
** 
*Node Output, nset=Set-1
RF2, U2
*End Step
** ----------------------------------------------------------------
** 
** STEP: Unloading
** 
*Step, name=Unloading, nlgeom=YES
*Static
0.001, 1., 1e-20, 1.
** 
** BOUNDARY CONDITIONS
** 
** Name: BC-5 Type: Displacement/Rotation
*Boundary
_PickedSet19, 2, 2
** 
** OUTPUT REQUESTS
** 
*Restart, write, frequency=0
** 
** FIELD OUTPUT: F-Output-1
** 
*Output, field
*Node Output
RF, U
*Element Output, directions=YES
E, FV, PE, PEQC, S, PEEQ
** 
** HISTORY OUTPUT: H-Output-3
** 
*Output, history
*Contact Output, master=_PickedSurf13, slave=made
CFN2, 
** 
** HISTORY OUTPUT: H-Output-2
** 
*Node Output, nset=Set-1
RF2, U2
*End Step
