*Heading
** Job name: nadTest3 Model name: Model-1
** Generated by: Abaqus/CAE 2019
*Preprint, echo=NO, model=NO, history=NO, contact=NO
**
** PARTS
**
*Part, name=Part-1
*Node
      1,         -1.5,          3.5
      2,         -1.5,           3.
      3,         13.5,           3.
      4,         13.5,          3.5
      5,        -16.5,          3.5
      6,        -16.5,           3.
      7,         -1.5,   3.46153855
      8,         -1.5,   3.42307687
      9,         -1.5,   3.38461542
     10,         -1.5,   3.34615374
     11,         -1.5,   3.30769229
     12,         -1.5,   3.26923084
     13,         -1.5,   3.23076916
     14,         -1.5,   3.19230771
     15,         -1.5,   3.15384626
     16,         -1.5,   3.11538458
     17,         -1.5,   3.07692313
     18,         -1.5,   3.03846145
     19,  -1.48000002,           3.
     20,  -1.45975578,           3.
** ... 5342 like lines cut
*Element, type=CPE4R
   1,    1,    7,  803,  410
   2,    7,    8,  804,  803
   3,    8,    9,  805,  804
   4,    9,   10,  806,  805
   5,   10,   11,  807,  806
   6,   11,   12,  808,  807
   7,   12,   13,  809,  808
   8,   13,   14,  810,  809
   9,   14,   15,  811,  810
  10,   15,   16,  812,  811
  11,   16,   17,  813,  812
  12,   17,   18,  814,  813
  13,   18,    2,   19,  814
  14,  410,  803,  815,  409
  15,  803,  804,  816,  815
  16,  804,  805,  817,  816
  17,  805,  806,  818,  817
  18,  806,  807,  819,  818
  19,  807,  808,  820,  819
  20,  808,  809,  821,  820
** ... 4946 like lines cut
*Nset, nset=_PickedSet3, internal, generate
    1,  5362,     1
*Elset, elset=_PickedSet3, internal, generate
    1,  4966,     1
** Section: Section-1
*Solid Section, elset=_PickedSet3, material=Material-1
,
*End Part
**  
**
** ASSEMBLY
**
*Assembly, name=Assembly
**  
*Instance, name=Part-1-1, part=Part-1
*End Instance
**  
*Nset, nset=Set-1, instance=Part-1-1
 1, 2
*Nset, nset=_PickedSet4, internal, instance=Part-1-1, generate
 3,  6,  1
*Nset, nset=_PickedSet5, internal, instance=Part-1-1
 1,
*Nset, nset=_PickedSet7, internal, instance=Part-1-1
 1,
*End Assembly
*Amplitude, name=Amp-1, definition=PERIODIC
1, 3141.59265358979,              0.,              0.
             0.,              1.
** 
** MATERIALS
** 
*Material, name=Material-1
*Density
8440.,
*Elastic
 2.07e+11, 0.3
** 
** BOUNDARY CONDITIONS
** 
** Name: BC-1 Type: Displacement/Rotation
*Boundary
_PickedSet4, 1, 1
_PickedSet4, 2, 2
_PickedSet4, 6, 6
** ----------------------------------------------------------------
** 
** STEP: Step-1
** 
*Step, name=Step-1, nlgeom=YES
*Dynamic, Explicit
, 0.001,, 5e-07
*Bulk Viscosity
0.06, 1.2
** 
** BOUNDARY CONDITIONS
** 
** Name: BC-2 Type: Displacement/Rotation
*Boundary, amplitude=Amp-1
_PickedSet7, 2, 2, -1e-06
** 
** OUTPUT REQUESTS
** 
*Restart, write, number interval=1, time marks=NO
** 
** FIELD OUTPUT: F-Output-1
** 
*Output, field
*Node Output
A, U, V
*Element Output, directions=YES
S, 
** 
** HISTORY OUTPUT: H-Output-1
** 
*Output, history, time interval=5e-07
*Node Output, nset=Set-1
U1, U2
*End Step
