*Heading
** Job name: test5 Model name: Model-3-solidWithHole
** Generated by: Abaqus/CAE 2019
*Preprint, echo=NO, model=NO, history=NO, contact=NO
**
** PARTS
**
*Part, name=comp-down
*Node
      1,           0., -0.268000007,  0.111000001
      2, 0.00492338883, -0.267954767,  0.111000001
      3, 0.00984511524, -0.267819107,  0.111000001
      4, 0.0147635201, -0.267593056,  0.111000001
      5, 0.0196769405, -0.267276675,  0.111000001
      6, 0.0245837215, -0.266870081,  0.111000001
      7, 0.0294822026, -0.266373426,  0.111000001
      8, 0.0343707353, -0.265786856,  0.111000001
      9, 0.0392476656, -0.265110582,  0.111000001
     10, 0.0441113487, -0.264344841,  0.111000001
     11, 0.0489601456, -0.263489842,  0.111000001
     12,  0.053792417, -0.262545943,  0.111000001
     13, 0.0586065315, -0.261513442,  0.111000001
     14, 0.0634008646, -0.260392636,  0.111000001
     15, 0.0681738034, -0.259183973,  0.111000001
     16, 0.0729237273,  -0.25788781,  0.111000001
     17,  0.077649042, -0.256504625,  0.111000001
     18, 0.0823481455, -0.255034864,  0.111000001
     19, 0.0870194584, -0.253479034,  0.111000001
     20, 0.0916614011, -0.251837611,  0.111000001
** ... 11848 like lines cut
*Element, type=C3D8
   1,  3957,  3958,  4130,  4129,     1,     2,   174,   173
   2,  3958,  3959,  4131,  4130,     2,     3,   175,   174
   3,  3959,  3960,  4132,  4131,     3,     4,   176,   175
   4,  3960,  3961,  4133,  4132,     4,     5,   177,   176
   5,  3961,  3962,  4134,  4133,     5,     6,   178,   177
   6,  3962,  3963,  4135,  4134,     6,     7,   179,   178
   7,  3963,  3964,  4136,  4135,     7,     8,   180,   179
   8,  3964,  3965,  4137,  4136,     8,     9,   181,   180
   9,  3965,  3966,  4138,  4137,     9,    10,   182,   181
  10,  3966,  3967,  4139,  4138,    10,    11,   183,   182
  11,  3967,  3968,  4140,  4139,    11,    12,   184,   183
  12,  3968,  3969,  4141,  4140,    12,    13,   185,   184
  13,  3969,  3970,  4142,  4141,    13,    14,   186,   185
  14,  3970,  3971,  4143,  4142,    14,    15,   187,   186
  15,  3971,  3972,  4144,  4143,    15,    16,   188,   187
  16,  3972,  3973,  4145,  4144,    16,    17,   189,   188
  17,  3973,  3974,  4146,  4145,    17,    18,   190,   189
  18,  3974,  3975,  4147,  4146,    18,    19,   191,   190
  19,  3975,  3976,  4148,  4147,    19,    20,   192,   191
  20,  3976,  3977,  4149,  4148,    20,    21,   193,   192
** ... 7504 like lines cut
*Nset, nset=_PickedSet2, internal, generate
     1,  11868,      1
*Elset, elset=_PickedSet2, internal, generate
    1,  7524,     1
** Section: com
*Solid Section, elset=_PickedSet2, material=mc
,
*End Part
**  
*Part, name=comp-up
*Node
      1,  0.287826657, -0.00999038387, 0.0550615564
      2,  0.281579971, -0.0604708195, 0.0521754958
      3,   0.28170073, -0.0599057376,           0.
      4,  0.287999988, 0.000116797288,           0.
      5,  0.287999988,           0., 0.0454999991
      6,  0.287999988,           0., 0.0654999986
      7,  0.287943155, 0.00572145358,  0.111000001
      8,  0.287998855, 0.000811830629, 0.0862326771
      9,  0.281713158, -0.0598473065,  0.111000001
     10,           0., -0.287999988,  0.111000001
     11,           0., -0.287999988,           0.
     12,  0.282765895, 0.0546575673,           0.
     13,    0.2868191, 0.0260536987, 0.0764562637
     14,  0.287870795, 0.00862592552, 0.0605589934
     15,  0.283242762, 0.0521300174,  0.111000001
     16,  0.266141891,   0.11005675,           0.
     17,  0.266404033,  0.109420709,  0.111000001
     18,           0.,  0.287999988,           0.
     19,           0.,  0.287999988,  0.111000001
     20,  0.287975848, -0.00373002351, 0.0462216958
** ... 16252 like lines cut
*Element, type=C3D8
    1,   602,    23,     1,    22,  6026,  5447,  5425,  5446
    2,   601,    24,    23,   602,  6025,  5448,  5447,  6026
    3,   600,    25,    24,   601,  6024,  5449,  5448,  6025
    4,   599,    26,    25,   600,  6023,  5450,  5449,  6024
    5,   598,    27,    26,   599,  6022,  5451,  5450,  6023
    6,   597,    28,    27,   598,  6021,  5452,  5451,  6022
    7,   596,    29,    28,   597,  6020,  5453,  5452,  6021
    8,   596,   611,    30,    29,  6020,  6035,  5454,  5453
    9,   611,   610,    31,    30,  6035,  6034,  5455,  5454
   10,   610,   609,    32,    31,  6034,  6033,  5456,  5455
   11,   609,   608,    33,    32,  6033,  6032,  5457,  5456
   12,   608,   607,    34,    33,  6032,  6031,  5458,  5457
   13,   607,   606,    35,    34,  6031,  6030,  5459,  5458
   14,   606,   605,    36,    35,  6030,  6029,  5460,  5459
   15,   605,   604,    37,    36,  6029,  6028,  5461,  5460
   16,   604,   603,    38,    37,  6028,  6027,  5462,  5461
   17,   603,    39,     2,    38,  6027,  5463,  5426,  5462
   18,   603,   626,    40,    39,  6027,  6050,  5464,  5463
   19,   626,   627,    41,    40,  6050,  6051,  5465,  5464
   20,   627,   628,    42,    41,  6051,  6052,  5466,  5465
** ... 10372 like lines cut
*Nset, nset=_PickedSet2, internal, generate
     1,  16272,      1
*Elset, elset=_PickedSet2, internal, generate
     1,  10392,      1
** Section: com
*Solid Section, elset=_PickedSet2, material=mc
,
*End Part
**  
*Part, name=hous
*Node
      1,           0., -0.287999988,  0.111000001
      2, 0.00497106463, -0.287957102,  0.111000001
      3, 0.00994064845, -0.287828386,  0.111000001
      4, 0.0149072697, -0.287613928,  0.111000001
      5, 0.0198694505, -0.287313789,  0.111000001
      6, 0.0248257089, -0.286927998,  0.111000001
      7, 0.0297745727, -0.286456764,  0.111000001
      8, 0.0347145647, -0.285900146,  0.111000001
      9, 0.0396442115, -0.285258383,  0.111000001
     10, 0.0445620492, -0.284531593,  0.111000001
     11, 0.0494666062, -0.283720016,  0.111000001
     12,  0.054356426,  -0.28282395,  0.111000001
     13, 0.0592300519, -0.281843573,  0.111000001
     14, 0.0640860274, -0.280779243,  0.111000001
     15, 0.0689229146, -0.279631257,  0.111000001
     16, 0.0737392604, -0.278399944,  0.111000001
     17, 0.0785336345, -0.277085662,  0.111000001
     18, 0.0833046138, -0.275688857,  0.111000001
     19, 0.0880507678, -0.274209887,  0.111000001
     20, 0.0927706882, -0.272649229,  0.111000001
** ... 8398 like lines cut
*Element, type=C3D8
   1, 4210, 4211, 4394, 4393,    1,    2,  185,  184
   2, 4211, 4212, 4395, 4394,    2,    3,  186,  185
   3, 4212, 4213, 4396, 4395,    3,    4,  187,  186
   4, 4213, 4214, 4397, 4396,    4,    5,  188,  187
   5, 4214, 4215, 4398, 4397,    5,    6,  189,  188
   6, 4215, 4216, 4399, 4398,    6,    7,  190,  189
   7, 4216, 4217, 4400, 4399,    7,    8,  191,  190
   8, 4217, 4218, 4401, 4400,    8,    9,  192,  191
   9, 4218, 4219, 4402, 4401,    9,   10,  193,  192
  10, 4219, 4220, 4403, 4402,   10,   11,  194,  193
  11, 4220, 4221, 4404, 4403,   11,   12,  195,  194
  12, 4221, 4222, 4405, 4404,   12,   13,  196,  195
  13, 4222, 4223, 4406, 4405,   13,   14,  197,  196
  14, 4223, 4224, 4407, 4406,   14,   15,  198,  197
  15, 4224, 4225, 4408, 4407,   15,   16,  199,  198
  16, 4225, 4226, 4409, 4408,   16,   17,  200,  199
  17, 4226, 4227, 4410, 4409,   17,   18,  201,  200
  18, 4227, 4228, 4411, 4410,   18,   19,  202,  201
  19, 4228, 4229, 4412, 4411,   19,   20,  203,  202
  20, 4229, 4230, 4413, 4412,   20,   21,  204,  203
** ... 3984 like lines cut
*Nset, nset=_PickedSet2, internal, generate
    1,  8418,     1
*Elset, elset=_PickedSet2, internal, generate
    1,  4004,     1
** Section: Section-1
*Solid Section, elset=_PickedSet2, material="alloy 625"
,
*End Part
**  
*Part, name=mand
*Node
      1,           0., -0.266000003,  0.111000001
      2, 0.00497389864, -0.265953481,  0.111000001
      3, 0.00994605757, -0.265813977,  0.111000001
      4, 0.0149147389, -0.265581518,  0.111000001
      5, 0.0198782049, -0.265256196,  0.111000001
      6, 0.0248347204, -0.264838129,  0.111000001
      7, 0.0297825504, -0.264327437,  0.111000001
      8, 0.0347199664, -0.263724327,  0.111000001
      9, 0.0396452434, -0.263029009,  0.111000001
     10,  0.044556655, -0.262241691,  0.111000001
     11, 0.0494524874, -0.261362672,  0.111000001
     12,  0.054331027, -0.260392278,  0.111000001
     13, 0.0591905676, -0.259330839,  0.111000001
     14, 0.0640294105, -0.258178681,  0.111000001
     15, 0.0688458681, -0.256936282,  0.111000001
     16, 0.0736382455, -0.255603999,  0.111000001
     17, 0.0784048736, -0.254182369,  0.111000001
     18, 0.0831440911, -0.252671838,  0.111000001
     19, 0.0878542289, -0.251072973,  0.111000001
     20,  0.092533648, -0.249386296,  0.111000001
** ... 7754 like lines cut
*Element, type=C3D8
   1, 3888, 3889, 4058, 4057,    1,    2,  171,  170
   2, 3889, 3890, 4059, 4058,    2,    3,  172,  171
   3, 3890, 3891, 4060, 4059,    3,    4,  173,  172
   4, 3891, 3892, 4061, 4060,    4,    5,  174,  173
   5, 3892, 3893, 4062, 4061,    5,    6,  175,  174
   6, 3893, 3894, 4063, 4062,    6,    7,  176,  175
   7, 3894, 3895, 4064, 4063,    7,    8,  177,  176
   8, 3895, 3896, 4065, 4064,    8,    9,  178,  177
   9, 3896, 3897, 4066, 4065,    9,   10,  179,  178
  10, 3897, 3898, 4067, 4066,   10,   11,  180,  179
  11, 3898, 3899, 4068, 4067,   11,   12,  181,  180
  12, 3899, 3900, 4069, 4068,   12,   13,  182,  181
  13, 3900, 3901, 4070, 4069,   13,   14,  183,  182
  14, 3901, 3902, 4071, 4070,   14,   15,  184,  183
  15, 3902, 3903, 4072, 4071,   15,   16,  185,  184
  16, 3903, 3904, 4073, 4072,   16,   17,  186,  185
  17, 3904, 3905, 4074, 4073,   17,   18,  187,  186
  18, 3905, 3906, 4075, 4074,   18,   19,  188,  187
  19, 3906, 3907, 4076, 4075,   19,   20,  189,  188
  20, 3907, 3908, 4077, 4076,   20,   21,  190,  189
** ... 3676 like lines cut
*Nset, nset=_PickedSet2, internal, generate
    1,  7774,     1
*Elset, elset=_PickedSet2, internal, generate
    1,  3696,     1
** Section: Section-1
*Solid Section, elset=_PickedSet2, material="alloy 625"
,
*End Part
**  
**
** ASSEMBLY
**
*Assembly, name=Assembly
**  
*Instance, name=hous-1, part=hous
*End Instance
**  
*Instance, name=comp-down-1, part=comp-down
*End Instance
**  
*Instance, name=comp-up-1, part=comp-up
*End Instance
**  
*Instance, name=mand-1, part=mand
*End Instance
**  
*Nset, nset=_PickedSet53, internal, instance=hous-1
    1,  183,  184,  366,  367,  549,  550,  732,  733,  915,  916, 1098, 1099, 1281, 1282, 1464
 1465, 1647, 1648, 1830, 1831, 2013, 2014, 2196, 2197, 2379, 2380, 2562, 2563, 2745, 2746, 2928
 2929, 3111, 3112, 3294, 3295, 3477, 3478, 3660, 3661, 3843, 3844, 4026, 4027, 4209, 4210, 4392
 4393, 4575, 4576, 4758, 4759, 4941, 4942, 5124, 5125, 5307, 5308, 5490, 5491, 5673, 5674, 5856
 5857, 6039, 6040, 6222, 6223, 6405, 6406, 6588, 6589, 6771, 6772, 6954, 6955, 7137, 7138, 7320
 7321, 7503, 7504, 7686, 7687, 7869, 7870, 8052, 8053, 8235, 8236, 8418
*Nset, nset=_PickedSet53, internal, instance=comp-down-1
     1,   172,   173,   344,   345,   516,   517,   688,   689,   860,   861,  1032,  1033,  1204,  1205,  1376
  1377,  1548,  1549,  1720,  1721,  1892,  1893,  2064,  2065,  2236,  2237,  2408,  2409,  2580,  2581,  2752
  2753,  2924,  2925,  3096,  3097,  3268,  3269,  3440,  3441,  3612,  3613,  3784,  3785,  3956,  3957,  4128
  4129,  4300,  4301,  4472,  4473,  4644,  4645,  4816,  4817,  4988,  4989,  5160,  5161,  5332,  5333,  5504
  5505,  5676,  5677,  5848,  5849,  6020,  6021,  6192,  6193,  6364,  6365,  6536,  6537,  6708,  6709,  6880
  6881,  7052,  7053,  7224,  7225,  7396,  7397,  7568,  7569,  7740,  7741,  7912,  7913,  8084,  8085,  8256
  8257,  8428,  8429,  8600,  8601,  8772,  8773,  8944,  8945,  9116,  9117,  9288,  9289,  9460,  9461,  9632
  9633,  9804,  9805,  9976,  9977, 10148, 10149, 10320, 10321, 10492, 10493, 10664, 10665, 10836, 10837, 11008
 11009, 11180, 11181, 11352, 11353, 11524, 11525, 11696, 11697, 11868
*Nset, nset=_PickedSet53, internal, instance=comp-up-1
    10,    11,    18,    19,   210,   211,   212,   213,   214,   215,   216,   217,   218,   219,   220,   221
   222,   223,   224,   225,   226,   227,   228,   229,   230,   231,   232,   233,   234,   235,   236,   499
   500,   501,   502,   503,   504,   505,   506,   507,   508,   509,   510,   511,   512,   513,   514,   515
   516,   517,   518,   519,   520,  5434,  5435,  5442,  5443,  5634,  5635,  5636,  5637,  5638,  5639,  5640
  5641,  5642,  5643,  5644,  5645,  5646,  5647,  5648,  5649,  5650,  5651,  5652,  5653,  5654,  5655,  5656
  5657,  5658,  5659,  5660,  5923,  5924,  5925,  5926,  5927,  5928,  5929,  5930,  5931,  5932,  5933,  5934
  5935,  5936,  5937,  5938,  5939,  5940,  5941,  5942,  5943,  5944, 10858, 10859, 10866, 10867, 11058, 11059
 11060, 11061, 11062, 11063, 11064, 11065, 11066, 11067, 11068, 11069, 11070, 11071, 11072, 11073, 11074, 11075
 11076, 11077, 11078, 11079, 11080, 11081, 11082, 11083, 11084, 11347, 11348, 11349, 11350, 11351, 11352, 11353
 11354, 11355, 11356, 11357, 11358, 11359, 11360, 11361, 11362, 11363, 11364, 11365, 11366, 11367, 11368
*Nset, nset=_PickedSet53, internal, instance=mand-1
    1,  169,  170,  338,  339,  507,  508,  676,  677,  845,  846, 1014, 1015, 1183, 1184, 1352
 1353, 1521, 1522, 1690, 1691, 1859, 1860, 2028, 2029, 2197, 2198, 2366, 2367, 2535, 2536, 2704
 2705, 2873, 2874, 3042, 3043, 3211, 3212, 3380, 3381, 3549, 3550, 3718, 3719, 3887, 3888, 4056
 4057, 4225, 4226, 4394, 4395, 4563, 4564, 4732, 4733, 4901, 4902, 5070, 5071, 5239, 5240, 5408
 5409, 5577, 5578, 5746, 5747, 5915, 5916, 6084, 6085, 6253, 6254, 6422, 6423, 6591, 6592, 6760
 6761, 6929, 6930, 7098, 7099, 7267, 7268, 7436, 7437, 7605, 7606, 7774
*Elset, elset=_PickedSet53, internal, instance=hous-1
    1,  182,  183,  364,  365,  546,  547,  728,  729,  910,  911, 1092, 1093, 1274, 1275, 1456
 1457, 1638, 1639, 1820, 1821, 2002, 2003, 2184, 2185, 2366, 2367, 2548, 2549, 2730, 2731, 2912
 2913, 3094, 3095, 3276, 3277, 3458, 3459, 3640, 3641, 3822, 3823, 4004
*Elset, elset=_PickedSet53, internal, instance=comp-down-1
    1,  171,  172,  342,  343,  513,  514,  684,  685,  855,  856, 1026, 1027, 1197, 1198, 1368
 1369, 1539, 1540, 1710, 1711, 1881, 1882, 2052, 2053, 2223, 2224, 2394, 2395, 2565, 2566, 2736
 2737, 2907, 2908, 3078, 3079, 3249, 3250, 3420, 3421, 3591, 3592, 3762, 3763, 3933, 3934, 4104
 4105, 4275, 4276, 4446, 4447, 4617, 4618, 4788, 4789, 4959, 4960, 5130, 5131, 5301, 5302, 5472
 5473, 5643, 5644, 5814, 5815, 5985, 5986, 6156, 6157, 6327, 6328, 6498, 6499, 6669, 6670, 6840
 6841, 7011, 7012, 7182, 7183, 7353, 7354, 7524
*Elset, elset=_PickedSet53, internal, instance=comp-up-1
   492,   578,   664,   750,   836,   922,  1008,  1094,  1180,  1266,  1352,  1438,  1524,  1610,  1696,  1782
  1868,  1954,  2040,  2126,  2212,  2298,  2384,  2470,  2556,  2642,  2728,  2814,  5174,  5175,  5176,  5177
  5178,  5179,  5180,  5181,  5182,  5183,  5184,  5185,  5186,  5187,  5188,  5189,  5190,  5191,  5192,  5193
  5194,  5195,  5196,  5688,  5774,  5860,  5946,  6032,  6118,  6204,  6290,  6376,  6462,  6548,  6634,  6720
  6806,  6892,  6978,  7064,  7150,  7236,  7322,  7408,  7494,  7580,  7666,  7752,  7838,  7924,  8010, 10370
 10371, 10372, 10373, 10374, 10375, 10376, 10377, 10378, 10379, 10380, 10381, 10382, 10383, 10384, 10385, 10386
 10387, 10388, 10389, 10390, 10391, 10392
*Elset, elset=_PickedSet53, internal, instance=mand-1
    1,  168,  169,  336,  337,  504,  505,  672,  673,  840,  841, 1008, 1009, 1176, 1177, 1344
 1345, 1512, 1513, 1680, 1681, 1848, 1849, 2016, 2017, 2184, 2185, 2352, 2353, 2520, 2521, 2688
 2689, 2856, 2857, 3024, 3025, 3192, 3193, 3360, 3361, 3528, 3529, 3696
*Nset, nset=_PickedSet54, internal, instance=hous-1
    1,    2,    3,    4,    5,    6,    7,    8,    9,   10,   11,   12,   13,   14,   15,   16
   17,   18,   19,   20,   21,   22,   23,   24,   25,   26,   27,   28,   29,   30,   31,   32
   33,   34,   35,   36,   37,   38,   39,   40,   41,   42,   43,   44,   45,   46,   47,   48
   49,   50,   51,   52,   53,   54,   55,   56,   57,   58,   59,   60,   61,   62,   63,   64
   65,   66,   67,   68,   69,   70,   71,   72,   73,   74,   75,   76,   77,   78,   79,   80
   81,   82,   83,   84,   85,   86,   87,   88,   89,   90,   91,   92,   93,   94,   95,   96
   97,   98,   99,  100,  101,  102,  103,  104,  105,  106,  107,  108,  109,  110,  111,  112
  113,  114,  115,  116,  117,  118,  119,  120,  121,  122,  123,  124,  125,  126,  127,  128
  129,  130,  131,  132,  133,  134,  135,  136,  137,  138,  139,  140,  141,  142,  143,  144
  145,  146,  147,  148,  149,  150,  151,  152,  153,  154,  155,  156,  157,  158,  159,  160
  161,  162,  163,  164,  165,  166,  167,  168,  169,  170,  171,  172,  173,  174,  175,  176
  177,  178,  179,  180,  181,  182,  183, 4210, 4211, 4212, 4213, 4214, 4215, 4216, 4217, 4218
 4219, 4220, 4221, 4222, 4223, 4224, 4225, 4226, 4227, 4228, 4229, 4230, 4231, 4232, 4233, 4234
 4235, 4236, 4237, 4238, 4239, 4240, 4241, 4242, 4243, 4244, 4245, 4246, 4247, 4248, 4249, 4250
 4251, 4252, 4253, 4254, 4255, 4256, 4257, 4258, 4259, 4260, 4261, 4262, 4263, 4264, 4265, 4266
 4267, 4268, 4269, 4270, 4271, 4272, 4273, 4274, 4275, 4276, 4277, 4278, 4279, 4280, 4281, 4282
 4283, 4284, 4285, 4286, 4287, 4288, 4289, 4290, 4291, 4292, 4293, 4294, 4295, 4296, 4297, 4298
 4299, 4300, 4301, 4302, 4303, 4304, 4305, 4306, 4307, 4308, 4309, 4310, 4311, 4312, 4313, 4314
 4315, 4316, 4317, 4318, 4319, 4320, 4321, 4322, 4323, 4324, 4325, 4326, 4327, 4328, 4329, 4330
 4331, 4332, 4333, 4334, 4335, 4336, 4337, 4338, 4339, 4340, 4341, 4342, 4343, 4344, 4345, 4346
 4347, 4348, 4349, 4350, 4351, 4352, 4353, 4354, 4355, 4356, 4357, 4358, 4359, 4360, 4361, 4362
 4363, 4364, 4365, 4366, 4367, 4368, 4369, 4370, 4371, 4372, 4373, 4374, 4375, 4376, 4377, 4378
 4379, 4380, 4381, 4382, 4383, 4384, 4385, 4386, 4387, 4388, 4389, 4390, 4391, 4392
*Nset, nset=_PickedSet54, internal, instance=comp-down-1
    1,    2,    3,    4,    5,    6,    7,    8,    9,   10,   11,   12,   13,   14,   15,   16
   17,   18,   19,   20,   21,   22,   23,   24,   25,   26,   27,   28,   29,   30,   31,   32
   33,   34,   35,   36,   37,   38,   39,   40,   41,   42,   43,   44,   45,   46,   47,   48
   49,   50,   51,   52,   53,   54,   55,   56,   57,   58,   59,   60,   61,   62,   63,   64
   65,   66,   67,   68,   69,   70,   71,   72,   73,   74,   75,   76,   77,   78,   79,   80
   81,   82,   83,   84,   85,   86,   87,   88,   89,   90,   91,   92,   93,   94,   95,   96
   97,   98,   99,  100,  101,  102,  103,  104,  105,  106,  107,  108,  109,  110,  111,  112
  113,  114,  115,  116,  117,  118,  119,  120,  121,  122,  123,  124,  125,  126,  127,  128
  129,  130,  131,  132,  133,  134,  135,  136,  137,  138,  139,  140,  141,  142,  143,  144
  145,  146,  147,  148,  149,  150,  151,  152,  153,  154,  155,  156,  157,  158,  159,  160
  161,  162,  163,  164,  165,  166,  167,  168,  169,  170,  171,  172, 3957, 3958, 3959, 3960
 3961, 3962, 3963, 3964, 3965, 3966, 3967, 3968, 3969, 3970, 3971, 3972, 3973, 3974, 3975, 3976
 3977, 3978, 3979, 3980, 3981, 3982, 3983, 3984, 3985, 3986, 3987, 3988, 3989, 3990, 3991, 3992
 3993, 3994, 3995, 3996, 3997, 3998, 3999, 4000, 4001, 4002, 4003, 4004, 4005, 4006, 4007, 4008
 4009, 4010, 4011, 4012, 4013, 4014, 4015, 4016, 4017, 4018, 4019, 4020, 4021, 4022, 4023, 4024
 4025, 4026, 4027, 4028, 4029, 4030, 4031, 4032, 4033, 4034, 4035, 4036, 4037, 4038, 4039, 4040
 4041, 4042, 4043, 4044, 4045, 4046, 4047, 4048, 4049, 4050, 4051, 4052, 4053, 4054, 4055, 4056
 4057, 4058, 4059, 4060, 4061, 4062, 4063, 4064, 4065, 4066, 4067, 4068, 4069, 4070, 4071, 4072
 4073, 4074, 4075, 4076, 4077, 4078, 4079, 4080, 4081, 4082, 4083, 4084, 4085, 4086, 4087, 4088
 4089, 4090, 4091, 4092, 4093, 4094, 4095, 4096, 4097, 4098, 4099, 4100, 4101, 4102, 4103, 4104
** ... 13 like lines cut
*Nset, nset=_PickedSet54, internal, instance=comp-up-1
     7,     9,    10,    15,    17,    19,   107,   108,   109,   110,   111,   112,   113,   114,   115,   116
   117,   118,   125,   126,   127,   128,   129,   130,   131,   132,   133,   134,   135,   136,   137,   138
   139,   140,   141,   142,   143,   144,   145,   146,   147,   148,   149,   150,   151,   152,   153,   154
   155,   156,   157,   158,   159,   160,   161,   162,   163,   164,   165,   166,   167,   168,   169,   170
   171,   172,   173,   174,   175,   176,   177,   178,   179,   180,   181,   182,   183,   184,   185,   186
   187,   188,   189,   190,   191,   192,   193,   194,   195,   196,   197,   198,   199,   200,   201,   202
   203,   204,   205,   206,   207,   208,   209,   380,   381,   382,   405,   406,   407,   408,   409,   410
   521,   522,   523,   524,   525,   526,   527,   528,   529,   530,   531,   532,   533,   534,   535,   536
   537,   538,   539,   540,   541,   542,   543,   544,   545,   546,   547,   548,   549,   550,   551,   552
   553,   554,   555,   556,   557,   558,   559,   560,   561,   562,   563,   564,   565,   566,   567,   568
   569,   570,   571,   572,   573,   574,   575,   576,   577,   578,   579,   580,   581,   582,   583,   584
   585,   586,   587,   588,   589,   590,   591,   592,   593,   594,   595,  5431,  5433,  5434,  5439,  5441
  5443,  5531,  5532,  5533,  5534,  5535,  5536,  5537,  5538,  5539,  5540,  5541,  5542,  5549,  5550,  5551
  5552,  5553,  5554,  5555,  5556,  5557,  5558,  5559,  5560,  5561,  5562,  5563,  5564,  5565,  5566,  5567
  5568,  5569,  5570,  5571,  5572,  5573,  5574,  5575,  5576,  5577,  5578,  5579,  5580,  5581,  5582,  5583
  5584,  5585,  5586,  5587,  5588,  5589,  5590,  5591,  5592,  5593,  5594,  5595,  5596,  5597,  5598,  5599
  5600,  5601,  5602,  5603,  5604,  5605,  5606,  5607,  5608,  5609,  5610,  5611,  5612,  5613,  5614,  5615
  5616,  5617,  5618,  5619,  5620,  5621,  5622,  5623,  5624,  5625,  5626,  5627,  5628,  5629,  5630,  5631
  5632,  5633,  5804,  5805,  5806,  5829,  5830,  5831,  5832,  5833,  5834,  5945,  5946,  5947,  5948,  5949
  5950,  5951,  5952,  5953,  5954,  5955,  5956,  5957,  5958,  5959,  5960,  5961,  5962,  5963,  5964,  5965
** ... 16 like lines cut
*Nset, nset=_PickedSet54, internal, instance=mand-1
    1,    2,    3,    4,    5,    6,    7,    8,    9,   10,   11,   12,   13,   14,   15,   16
   17,   18,   19,   20,   21,   22,   23,   24,   25,   26,   27,   28,   29,   30,   31,   32
   33,   34,   35,   36,   37,   38,   39,   40,   41,   42,   43,   44,   45,   46,   47,   48
   49,   50,   51,   52,   53,   54,   55,   56,   57,   58,   59,   60,   61,   62,   63,   64
   65,   66,   67,   68,   69,   70,   71,   72,   73,   74,   75,   76,   77,   78,   79,   80
   81,   82,   83,   84,   85,   86,   87,   88,   89,   90,   91,   92,   93,   94,   95,   96
   97,   98,   99,  100,  101,  102,  103,  104,  105,  106,  107,  108,  109,  110,  111,  112
  113,  114,  115,  116,  117,  118,  119,  120,  121,  122,  123,  124,  125,  126,  127,  128
  129,  130,  131,  132,  133,  134,  135,  136,  137,  138,  139,  140,  141,  142,  143,  144
  145,  146,  147,  148,  149,  150,  151,  152,  153,  154,  155,  156,  157,  158,  159,  160
  161,  162,  163,  164,  165,  166,  167,  168,  169, 3888, 3889, 3890, 3891, 3892, 3893, 3894
 3895, 3896, 3897, 3898, 3899, 3900, 3901, 3902, 3903, 3904, 3905, 3906, 3907, 3908, 3909, 3910
 3911, 3912, 3913, 3914, 3915, 3916, 3917, 3918, 3919, 3920, 3921, 3922, 3923, 3924, 3925, 3926
 3927, 3928, 3929, 3930, 3931, 3932, 3933, 3934, 3935, 3936, 3937, 3938, 3939, 3940, 3941, 3942
 3943, 3944, 3945, 3946, 3947, 3948, 3949, 3950, 3951, 3952, 3953, 3954, 3955, 3956, 3957, 3958
 3959, 3960, 3961, 3962, 3963, 3964, 3965, 3966, 3967, 3968, 3969, 3970, 3971, 3972, 3973, 3974
 3975, 3976, 3977, 3978, 3979, 3980, 3981, 3982, 3983, 3984, 3985, 3986, 3987, 3988, 3989, 3990
 3991, 3992, 3993, 3994, 3995, 3996, 3997, 3998, 3999, 4000, 4001, 4002, 4003, 4004, 4005, 4006
 4007, 4008, 4009, 4010, 4011, 4012, 4013, 4014, 4015, 4016, 4017, 4018, 4019, 4020, 4021, 4022
 4023, 4024, 4025, 4026, 4027, 4028, 4029, 4030, 4031, 4032, 4033, 4034, 4035, 4036, 4037, 4038
 4039, 4040, 4041, 4042, 4043, 4044, 4045, 4046, 4047, 4048, 4049, 4050, 4051, 4052, 4053, 4054
 4055, 4056
*Elset, elset=_PickedSet54, internal, instance=hous-1, generate
   1,  182,    1
*Elset, elset=_PickedSet54, internal, instance=comp-down-1
    1,    2,    3,    4,    5,    6,    7,    8,    9,   10,   11,   12,   13,   14,   15,   16
   17,   18,   19,   20,   21,   22,   23,   24,   25,   26,   27,   28,   29,   30,   31,   32
   33,   34,   35,   36,   37,   38,   39,   40,   41,   42,   43,   44,   45,   46,   47,   48
   49,   50,   51,   52,   53,   54,   55,   56,   57,   58,   59,   60,   61,   62,   63,   64
   65,   66,   67,   68,   69,   70,   71,   72,   73,   74,   75,   76,   77,   78,   79,   80
   81,   82,   83,   84,   85,   86,   87,   88,   89,   90,   91,   92,   93,   94,   95,   96
   97,   98,   99,  100,  101,  102,  103,  104,  105,  106,  107,  108,  109,  110,  111,  112
  113,  114,  115,  116,  117,  118,  119,  120,  121,  122,  123,  124,  125,  126,  127,  128
  129,  130,  131,  132,  133,  134,  135,  136,  137,  138,  139,  140,  141,  142,  143,  144
  145,  146,  147,  148,  149,  150,  151,  152,  153,  154,  155,  156,  157,  158,  159,  160
  161,  162,  163,  164,  165,  166,  167,  168,  169,  170,  171, 3763, 3764, 3765, 3766, 3767
 3768, 3769, 3770, 3771, 3772, 3773, 3774, 3775, 3776, 3777, 3778, 3779, 3780, 3781, 3782, 3783
 3784, 3785, 3786, 3787, 3788, 3789, 3790, 3791, 3792, 3793, 3794, 3795, 3796, 3797, 3798, 3799
 3800, 3801, 3802, 3803, 3804, 3805, 3806, 3807, 3808, 3809, 3810, 3811, 3812, 3813, 3814, 3815
 3816, 3817, 3818, 3819, 3820, 3821, 3822, 3823, 3824, 3825, 3826, 3827, 3828, 3829, 3830, 3831
 3832, 3833, 3834, 3835, 3836, 3837, 3838, 3839, 3840, 3841, 3842, 3843, 3844, 3845, 3846, 3847
 3848, 3849, 3850, 3851, 3852, 3853, 3854, 3855, 3856, 3857, 3858, 3859, 3860, 3861, 3862, 3863
 3864, 3865, 3866, 3867, 3868, 3869, 3870, 3871, 3872, 3873, 3874, 3875, 3876, 3877, 3878, 3879
 3880, 3881, 3882, 3883, 3884, 3885, 3886, 3887, 3888, 3889, 3890, 3891, 3892, 3893, 3894, 3895
 3896, 3897, 3898, 3899, 3900, 3901, 3902, 3903, 3904, 3905, 3906, 3907, 3908, 3909, 3910, 3911
 3912, 3913, 3914, 3915, 3916, 3917, 3918, 3919, 3920, 3921, 3922, 3923, 3924, 3925, 3926, 3927
 3928, 3929, 3930, 3931, 3932, 3933
*Elset, elset=_PickedSet54, internal, instance=comp-up-1
   264,   275,   276,   277,   278,   279,   280,   281,   282,   283,   284,   285,   286,   407,   408,   409
   410,   411,   412,   413,   414,   415,   416,   417,   418,   419,   420,   421,   422,   423,   424,   425
   426,   427,   428,   429,   430,   431,   432,   433,   434,   435,   436,   437,   438,   439,   440,   441
   442,   443,   444,   445,   446,   447,   448,   449,   450,   451,   452,   453,   454,   455,   456,   457
   458,   459,   460,   461,   462,   463,   464,   465,   466,   467,   468,   469,   470,   471,   472,   473
   474,   475,   476,   477,   478,   479,   480,   481,   482,   483,   484,   485,   486,   487,   488,   489
   490,   491,   492,  3123,  3124,  3125,  3126,  3149,  3172,  3195,  3218,  3241,  3264,  3287,  3449,  3472
  3495,  3518,  3541,  3564,  3587,  3610,  3633,  3656,  3679,  3702,  3725,  3748,  3771,  3794,  3817,  3840
  3863,  3886,  3909,  3932,  3955,  3978,  4001,  4024,  4047,  4070,  4093,  4116,  4139,  4162,  4185,  4208
  4231,  4254,  4277,  4300,  4323,  4346,  4369,  4392,  4415,  4438,  4461,  4484,  4507,  4530,  4553,  4576
  4599,  4622,  4645,  4668,  4691,  4714,  4737,  4760,  4783,  4806,  4829,  4852,  4875,  4898,  4921,  4944
  4967,  4990,  5013,  5036,  5059,  5082,  5105,  5128,  5151,  5174,  5460,  5471,  5472,  5473,  5474,  5475
  5476,  5477,  5478,  5479,  5480,  5481,  5482,  5603,  5604,  5605,  5606,  5607,  5608,  5609,  5610,  5611
  5612,  5613,  5614,  5615,  5616,  5617,  5618,  5619,  5620,  5621,  5622,  5623,  5624,  5625,  5626,  5627
  5628,  5629,  5630,  5631,  5632,  5633,  5634,  5635,  5636,  5637,  5638,  5639,  5640,  5641,  5642,  5643
  5644,  5645,  5646,  5647,  5648,  5649,  5650,  5651,  5652,  5653,  5654,  5655,  5656,  5657,  5658,  5659
  5660,  5661,  5662,  5663,  5664,  5665,  5666,  5667,  5668,  5669,  5670,  5671,  5672,  5673,  5674,  5675
  5676,  5677,  5678,  5679,  5680,  5681,  5682,  5683,  5684,  5685,  5686,  5687,  5688,  8319,  8320,  8321
  8322,  8345,  8368,  8391,  8414,  8437,  8460,  8483,  8645,  8668,  8691,  8714,  8737,  8760,  8783,  8806
  8829,  8852,  8875,  8898,  8921,  8944,  8967,  8990,  9013,  9036,  9059,  9082,  9105,  9128,  9151,  9174
** ... 4 like lines cut
*Elset, elset=_PickedSet54, internal, instance=mand-1, generate
   1,  168,    1
*Nset, nset=_PickedSet80, internal, instance=comp-up-1
 10858, 10867
*Elset, elset=_CP-2-comp-up-1_S1, internal, instance=comp-up-1, generate
    1,  5196,     1
*Surface, type=ELEMENT, name=CP-2-comp-up-1
_CP-2-comp-up-1_S1, S1
*Elset, elset=_CP-2-hous-1_S2, internal, instance=hous-1, generate
    1,  4004,     1
*Surface, type=ELEMENT, name=CP-2-hous-1
_CP-2-hous-1_S2, S2
*Elset, elset=_CP-4-comp-down-1_S1, internal, instance=comp-down-1, generate
 3763,  7524,     1
*Surface, type=ELEMENT, name=CP-4-comp-down-1
_CP-4-comp-down-1_S1, S1
*Elset, elset=_CP-4-comp-up-1_S2, internal, instance=comp-up-1, generate
  5197,  10392,      1
*Surface, type=ELEMENT, name=CP-4-comp-up-1
_CP-4-comp-up-1_S2, S2
*Elset, elset=_CP-4-hous-1_S2, internal, instance=hous-1, generate
    1,  4004,     1
*Surface, type=ELEMENT, name=CP-4-hous-1
_CP-4-hous-1_S2, S2
*Elset, elset=_CP-5-comp-down-1_S2, internal, instance=comp-down-1, generate
    1,  3762,     1
*Surface, type=ELEMENT, name=CP-5-comp-down-1
_CP-5-comp-down-1_S2, S2
*Elset, elset=_CP-5-mand-1_S1, internal, instance=mand-1, generate
    1,  3696,     1
*Surface, type=ELEMENT, name=CP-5-mand-1
_CP-5-mand-1_S1, S1
*Elset, elset=__PickedSurf52_S1, internal, instance=hous-1, generate
    1,  4004,     1
*Elset, elset=__PickedSurf52_S2, internal, instance=mand-1, generate
    1,  3696,     1
*Surface, type=ELEMENT, name=_PickedSurf52, internal
__PickedSurf52_S1, S1
__PickedSurf52_S2, S2
*Elset, elset=__Int-1_gcs0_1_S1, internal, instance=hous-1, generate
    1,  4004,     1
*Surface, type=ELEMENT, name=_Int-1_gcs0_1, internal
__Int-1_gcs0_1_S1, S1
*Elset, elset=__Int-1_gcs0_3_S2, internal, instance=hous-1, generate
    1,  4004,     1
*Surface, type=ELEMENT, name=_Int-1_gcs0_3, internal
__Int-1_gcs0_3_S2, S2
*Elset, elset=__Int-1_gcs0_7_S1, internal, instance=comp-down-1, generate
 3763,  7524,     1
*Surface, type=ELEMENT, name=_Int-1_gcs0_7, internal
__Int-1_gcs0_7_S1, S1
*Elset, elset=__Int-1_gcs0_9_S2, internal, instance=comp-down-1, generate
    1,  3762,     1
*Surface, type=ELEMENT, name=_Int-1_gcs0_9, internal
__Int-1_gcs0_9_S2, S2
*Elset, elset=__Int-1_gcs0_13_S5, internal, instance=comp-up-1
    1,  259, 3003, 3004, 3005, 5197, 5455, 8199, 8200, 8201
*Elset, elset=__Int-1_gcs0_13_S4, internal, instance=comp-up-1
  193,  200,  207,  248,  253,  258, 2999, 3000, 3001, 3002, 5389, 5396, 5403, 5444, 5449, 5454
 8195, 8196, 8197, 8198
*Elset, elset=__Int-1_gcs0_13_S3, internal, instance=comp-up-1
 3095, 3096, 3097, 3098, 8291, 8292, 8293, 8294
*Surface, type=ELEMENT, name=_Int-1_gcs0_13, internal
__Int-1_gcs0_13_S5, S5
__Int-1_gcs0_13_S4, S4
__Int-1_gcs0_13_S3, S3
*Elset, elset=__Int-1_gcs0_14_S1, internal, instance=comp-up-1, generate
    1,  5196,     1
*Surface, type=ELEMENT, name=_Int-1_gcs0_14, internal
__Int-1_gcs0_14_S1, S1
*Elset, elset=__Int-1_gcs0_16_S2, internal, instance=comp-up-1, generate
  5197,  10392,      1
*Surface, type=ELEMENT, name=_Int-1_gcs0_16, internal
__Int-1_gcs0_16_S2, S2
*Elset, elset=__Int-1_gcs0_20_S1, internal, instance=mand-1, generate
    1,  3696,     1
*Surface, type=ELEMENT, name=_Int-1_gcs0_20, internal
__Int-1_gcs0_20_S1, S1
*Elset, elset=__Int-1_gcs0_22_S2, internal, instance=mand-1, generate
    1,  3696,     1
*Surface, type=ELEMENT, name=_Int-1_gcs0_22, internal
__Int-1_gcs0_22_S2, S2
*End Assembly
** 
** MATERIALS
** 
*Material, name="alloy 625"
*Density
8440.,
*Elastic
 2.07e+11, 0.3
*Material, name=mc
*Density
2007.,
*Elastic
 2.055e+10, 0.2
** 
** INTERACTION PROPERTIES
** 
*Surface Interaction, name=IntProp-1
1.,
*Friction, rough
*Surface Behavior, pressure-overclosure=HARD
** 
** BOUNDARY CONDITIONS
** 
** Name: BC-1 Type: Symmetry/Antisymmetry/Encastre
*Boundary
_PickedSet53, XSYMM
** Name: BC-3 Type: Symmetry/Antisymmetry/Encastre
*Boundary
_PickedSet80, ENCASTRE
** 
** INTERACTIONS
** 
** Interaction: Int-1
*Contact
*Contact Inclusions, ALL EXTERIOR
*Contact Property Assignment
 ,  , IntProp-1
*Surface Property Assignment, property=GEOMETRIC CORRECTION
_Int-1_gcs0_1, Circumferential, 0., 0., 0.,  0., 0., 1.
_Int-1_gcs0_3, Circumferential, 0., 0., 0.,  0., 0., 1.
_Int-1_gcs0_7, Circumferential, 0., 0., 0.,  0., 0., 1.
_Int-1_gcs0_9, Circumferential, 0., 0., 0.,  0., 0., 1.
_Int-1_gcs0_13, Circumferential, 0.288, 0., 0.0555,  -0.712, 0., 0.0555
_Int-1_gcs0_14, Circumferential, 0., 0., 0.,  0., 0., 1.
_Int-1_gcs0_16, Circumferential, 0., 0., 0.,  0., 0., 1.
_Int-1_gcs0_20, Circumferential, 0., 0., 0.,  0., 0., 1.
_Int-1_gcs0_22, Circumferential, 0., 0., 0.,  0., 0., 1.
** ----------------------------------------------------------------
** 
** STEP: Step-1
** 
*Step, name=Step-1, nlgeom=NO
*Static
1., 1., 1e-05, 1.
** 
** LOADS
** 
** Name: Load-1   Type: Pressure
*Dsload
_PickedSurf52, P, 1.03421e+08
** 
** OUTPUT REQUESTS
** 
*Restart, write, frequency=0
** 
** FIELD OUTPUT: F-Output-1
** 
*Output, field
*Node Output
COORD, U
*Element Output, directions=YES
S, 
** 
** HISTORY OUTPUT: H-Output-1
** 
*Output, history, variable=PRESELECT
*End Step
