*Heading
** Job name: test6 Model name: Model-3-solidWithHole
** Generated by: Abaqus/CAE 2019
*Preprint, echo=NO, model=NO, history=NO, contact=NO
**
** PARTS
**
*Part, name=comp-down
*Node
      1,           0., -0.268000007,  0.111000001
      2, 0.00492338883, -0.267954767,  0.111000001
      3, 0.00984511524, -0.267819107,  0.111000001
      4, 0.0147635201, -0.267593056,  0.111000001
      5, 0.0196769405, -0.267276675,  0.111000001
      6, 0.0245837215, -0.266870081,  0.111000001
      7, 0.0294822026, -0.266373426,  0.111000001
      8, 0.0343707353, -0.265786856,  0.111000001
      9, 0.0392476656, -0.265110582,  0.111000001
     10, 0.0441113487, -0.264344841,  0.111000001
     11, 0.0489601456, -0.263489842,  0.111000001
     12,  0.053792417, -0.262545943,  0.111000001
     13, 0.0586065315, -0.261513442,  0.111000001
     14, 0.0634008646, -0.260392636,  0.111000001
     15, 0.0681738034, -0.259183973,  0.111000001
     16, 0.0729237273,  -0.25788781,  0.111000001
     17,  0.077649042, -0.256504625,  0.111000001
     18, 0.0823481455, -0.255034864,  0.111000001
     19, 0.0870194584, -0.253479034,  0.111000001
     20, 0.0916614011, -0.251837611,  0.111000001
** ... 11848 like lines cut
*Element, type=C3D8
   1,  3957,  3958,  4130,  4129,     1,     2,   174,   173
   2,  3958,  3959,  4131,  4130,     2,     3,   175,   174
   3,  3959,  3960,  4132,  4131,     3,     4,   176,   175
   4,  3960,  3961,  4133,  4132,     4,     5,   177,   176
   5,  3961,  3962,  4134,  4133,     5,     6,   178,   177
   6,  3962,  3963,  4135,  4134,     6,     7,   179,   178
   7,  3963,  3964,  4136,  4135,     7,     8,   180,   179
   8,  3964,  3965,  4137,  4136,     8,     9,   181,   180
   9,  3965,  3966,  4138,  4137,     9,    10,   182,   181
  10,  3966,  3967,  4139,  4138,    10,    11,   183,   182
  11,  3967,  3968,  4140,  4139,    11,    12,   184,   183
  12,  3968,  3969,  4141,  4140,    12,    13,   185,   184
  13,  3969,  3970,  4142,  4141,    13,    14,   186,   185
  14,  3970,  3971,  4143,  4142,    14,    15,   187,   186
  15,  3971,  3972,  4144,  4143,    15,    16,   188,   187
  16,  3972,  3973,  4145,  4144,    16,    17,   189,   188
  17,  3973,  3974,  4146,  4145,    17,    18,   190,   189
  18,  3974,  3975,  4147,  4146,    18,    19,   191,   190
  19,  3975,  3976,  4148,  4147,    19,    20,   192,   191
  20,  3976,  3977,  4149,  4148,    20,    21,   193,   192
** ... 7504 like lines cut
*Nset, nset=_PickedSet2, internal, generate
     1,  11868,      1
*Elset, elset=_PickedSet2, internal, generate
    1,  7524,     1
** Section: com
*Solid Section, elset=_PickedSet2, material=mc
,
*End Part
**  
*Part, name=comp-up
*Node
      1,  0.287959337, 0.0048393649, 0.0567572005
      2,  0.281656653,  0.060112644, 0.0591198951
      3,  0.281696528,  0.059925478,  0.111000001
      4,  0.287999988, 4.9700634e-06,  0.111000001
      5,  0.287999988,           0., 0.0604999997
      6,  0.287999988,           0., 0.0505000018
      7,  0.287999868, -0.000289691001,           0.
      8,  0.281703383, 0.0598932765,           0.
      9,           0.,  0.287999988,           0.
     10,           0.,  0.287999988,  0.111000001
     11,  0.281609714, -0.0603321753, 0.0523127876
     12,  0.287958235, -0.00490454677, 0.0545276739
     13,  0.281700432, -0.0599071346,  0.111000001
     14,   0.28169629, -0.0599265881,           0.
     15,           0., -0.287999988,  0.111000001
     16,           0., -0.287999988,           0.
     17,  0.287983656, 0.00306955655,  0.059446875
     18,  0.287933558, 0.0061856457, 0.0571581796
     19,  0.287881732, 0.00825287774, 0.0574718863
     20,  0.287722737, 0.0126345772, 0.0574525222
** ... 13081 like lines cut
*Element, type=C3D8
   1,   510,    18,     1,    17,  4877,  4385,  4368,  4384
   2,   509,    19,    18,   510,  4876,  4386,  4385,  4877
   3,   509,   520,    20,    19,  4876,  4887,  4387,  4386
   4,   520,   519,    21,    20,  4887,  4886,  4388,  4387
   5,   519,   518,    22,    21,  4886,  4885,  4389,  4388
   6,   518,   517,    23,    22,  4885,  4884,  4390,  4389
   7,   517,   516,    24,    23,  4884,  4883,  4391,  4390
   8,   516,   515,    25,    24,  4883,  4882,  4392,  4391
   9,   515,   514,    26,    25,  4882,  4881,  4393,  4392
  10,   514,   513,    27,    26,  4881,  4880,  4394,  4393
  11,   513,   512,    28,    27,  4880,  4879,  4395,  4394
  12,   512,   511,    29,    28,  4879,  4878,  4396,  4395
  13,   511,    30,     2,    29,  4878,  4397,  4369,  4396
  14,   511,   530,    31,    30,  4878,  4897,  4398,  4397
  15,   530,   531,    32,    31,  4897,  4898,  4399,  4398
  16,   531,   532,    33,    32,  4898,  4899,  4400,  4399
  17,   532,   533,    34,    33,  4899,  4900,  4401,  4400
  18,   533,   534,    35,    34,  4900,  4901,  4402,  4401
  19,   534,   535,    36,    35,  4901,  4902,  4403,  4402
  20,   535,   536,    37,    36,  4902,  4903,  4404,  4403
** ... 8298 like lines cut
*Nset, nset=_PickedSet2, internal, generate
     1,  13101,      1
*Elset, elset=_PickedSet2, internal, generate
    1,  8318,     1
** Section: com
*Solid Section, elset=_PickedSet2, material=mc
,
*End Part
**  
*Part, name=hous
*Node
      1,           0., -0.287999988,  0.111000001
      2, 0.00497106463, -0.287957102,  0.111000001
      3, 0.00994064845, -0.287828386,  0.111000001
      4, 0.0149072697, -0.287613928,  0.111000001
      5, 0.0198694505, -0.287313789,  0.111000001
      6, 0.0248257089, -0.286927998,  0.111000001
      7, 0.0297745727, -0.286456764,  0.111000001
      8, 0.0347145647, -0.285900146,  0.111000001
      9, 0.0396442115, -0.285258383,  0.111000001
     10, 0.0445620492, -0.284531593,  0.111000001
     11, 0.0494666062, -0.283720016,  0.111000001
     12,  0.054356426,  -0.28282395,  0.111000001
     13, 0.0592300519, -0.281843573,  0.111000001
     14, 0.0640860274, -0.280779243,  0.111000001
     15, 0.0689229146, -0.279631257,  0.111000001
     16, 0.0737392604, -0.278399944,  0.111000001
     17, 0.0785336345, -0.277085662,  0.111000001
     18, 0.0833046138, -0.275688857,  0.111000001
     19, 0.0880507678, -0.274209887,  0.111000001
     20, 0.0927706882, -0.272649229,  0.111000001
** ... 8398 like lines cut
*Element, type=C3D8
   1, 4210, 4211, 4394, 4393,    1,    2,  185,  184
   2, 4211, 4212, 4395, 4394,    2,    3,  186,  185
   3, 4212, 4213, 4396, 4395,    3,    4,  187,  186
   4, 4213, 4214, 4397, 4396,    4,    5,  188,  187
   5, 4214, 4215, 4398, 4397,    5,    6,  189,  188
   6, 4215, 4216, 4399, 4398,    6,    7,  190,  189
   7, 4216, 4217, 4400, 4399,    7,    8,  191,  190
   8, 4217, 4218, 4401, 4400,    8,    9,  192,  191
   9, 4218, 4219, 4402, 4401,    9,   10,  193,  192
  10, 4219, 4220, 4403, 4402,   10,   11,  194,  193
  11, 4220, 4221, 4404, 4403,   11,   12,  195,  194
  12, 4221, 4222, 4405, 4404,   12,   13,  196,  195
  13, 4222, 4223, 4406, 4405,   13,   14,  197,  196
  14, 4223, 4224, 4407, 4406,   14,   15,  198,  197
  15, 4224, 4225, 4408, 4407,   15,   16,  199,  198
  16, 4225, 4226, 4409, 4408,   16,   17,  200,  199
  17, 4226, 4227, 4410, 4409,   17,   18,  201,  200
  18, 4227, 4228, 4411, 4410,   18,   19,  202,  201
  19, 4228, 4229, 4412, 4411,   19,   20,  203,  202
  20, 4229, 4230, 4413, 4412,   20,   21,  204,  203
** ... 3984 like lines cut
*Nset, nset=_PickedSet2, internal, generate
    1,  8418,     1
*Elset, elset=_PickedSet2, internal, generate
    1,  4004,     1
** Section: Section-1
*Solid Section, elset=_PickedSet2, material="alloy 625"
,
*End Part
**  
*Part, name=mand
*Node
      1,           0., -0.266000003,  0.111000001
      2, 0.00497389864, -0.265953481,  0.111000001
      3, 0.00994605757, -0.265813977,  0.111000001
      4, 0.0149147389, -0.265581518,  0.111000001
      5, 0.0198782049, -0.265256196,  0.111000001
      6, 0.0248347204, -0.264838129,  0.111000001
      7, 0.0297825504, -0.264327437,  0.111000001
      8, 0.0347199664, -0.263724327,  0.111000001
      9, 0.0396452434, -0.263029009,  0.111000001
     10,  0.044556655, -0.262241691,  0.111000001
     11, 0.0494524874, -0.261362672,  0.111000001
     12,  0.054331027, -0.260392278,  0.111000001
     13, 0.0591905676, -0.259330839,  0.111000001
     14, 0.0640294105, -0.258178681,  0.111000001
     15, 0.0688458681, -0.256936282,  0.111000001
     16, 0.0736382455, -0.255603999,  0.111000001
     17, 0.0784048736, -0.254182369,  0.111000001
     18, 0.0831440911, -0.252671838,  0.111000001
     19, 0.0878542289, -0.251072973,  0.111000001
     20,  0.092533648, -0.249386296,  0.111000001
** ... 7754 like lines cut
*Element, type=C3D8
   1, 3888, 3889, 4058, 4057,    1,    2,  171,  170
   2, 3889, 3890, 4059, 4058,    2,    3,  172,  171
   3, 3890, 3891, 4060, 4059,    3,    4,  173,  172
   4, 3891, 3892, 4061, 4060,    4,    5,  174,  173
   5, 3892, 3893, 4062, 4061,    5,    6,  175,  174
   6, 3893, 3894, 4063, 4062,    6,    7,  176,  175
   7, 3894, 3895, 4064, 4063,    7,    8,  177,  176
   8, 3895, 3896, 4065, 4064,    8,    9,  178,  177
   9, 3896, 3897, 4066, 4065,    9,   10,  179,  178
  10, 3897, 3898, 4067, 4066,   10,   11,  180,  179
  11, 3898, 3899, 4068, 4067,   11,   12,  181,  180
  12, 3899, 3900, 4069, 4068,   12,   13,  182,  181
  13, 3900, 3901, 4070, 4069,   13,   14,  183,  182
  14, 3901, 3902, 4071, 4070,   14,   15,  184,  183
  15, 3902, 3903, 4072, 4071,   15,   16,  185,  184
  16, 3903, 3904, 4073, 4072,   16,   17,  186,  185
  17, 3904, 3905, 4074, 4073,   17,   18,  187,  186
  18, 3905, 3906, 4075, 4074,   18,   19,  188,  187
  19, 3906, 3907, 4076, 4075,   19,   20,  189,  188
  20, 3907, 3908, 4077, 4076,   20,   21,  190,  189
** ... 3676 like lines cut
*Nset, nset=_PickedSet2, internal, generate
    1,  7774,     1
*Elset, elset=_PickedSet2, internal, generate
    1,  3696,     1
** Section: Section-1
*Solid Section, elset=_PickedSet2, material="alloy 625"
,
*End Part
**  
**
** ASSEMBLY
**
*Assembly, name=Assembly
**  
*Instance, name=hous-1, part=hous
*End Instance
**  
*Instance, name=comp-down-1, part=comp-down
*End Instance
**  
*Instance, name=comp-up-1, part=comp-up
*End Instance
**  
*Instance, name=mand-1, part=mand
*End Instance
**  
*Nset, nset=_PickedSet53, internal, instance=hous-1
    1,  183,  184,  366,  367,  549,  550,  732,  733,  915,  916, 1098, 1099, 1281, 1282, 1464
 1465, 1647, 1648, 1830, 1831, 2013, 2014, 2196, 2197, 2379, 2380, 2562, 2563, 2745, 2746, 2928
 2929, 3111, 3112, 3294, 3295, 3477, 3478, 3660, 3661, 3843, 3844, 4026, 4027, 4209, 4210, 4392
 4393, 4575, 4576, 4758, 4759, 4941, 4942, 5124, 5125, 5307, 5308, 5490, 5491, 5673, 5674, 5856
 5857, 6039, 6040, 6222, 6223, 6405, 6406, 6588, 6589, 6771, 6772, 6954, 6955, 7137, 7138, 7320
 7321, 7503, 7504, 7686, 7687, 7869, 7870, 8052, 8053, 8235, 8236, 8418
*Nset, nset=_PickedSet53, internal, instance=comp-down-1
     1,   172,   173,   344,   345,   516,   517,   688,   689,   860,   861,  1032,  1033,  1204,  1205,  1376
  1377,  1548,  1549,  1720,  1721,  1892,  1893,  2064,  2065,  2236,  2237,  2408,  2409,  2580,  2581,  2752
  2753,  2924,  2925,  3096,  3097,  3268,  3269,  3440,  3441,  3612,  3613,  3784,  3785,  3956,  3957,  4128
  4129,  4300,  4301,  4472,  4473,  4644,  4645,  4816,  4817,  4988,  4989,  5160,  5161,  5332,  5333,  5504
  5505,  5676,  5677,  5848,  5849,  6020,  6021,  6192,  6193,  6364,  6365,  6536,  6537,  6708,  6709,  6880
  6881,  7052,  7053,  7224,  7225,  7396,  7397,  7568,  7569,  7740,  7741,  7912,  7913,  8084,  8085,  8256
  8257,  8428,  8429,  8600,  8601,  8772,  8773,  8944,  8945,  9116,  9117,  9288,  9289,  9460,  9461,  9632
  9633,  9804,  9805,  9976,  9977, 10148, 10149, 10320, 10321, 10492, 10493, 10664, 10665, 10836, 10837, 11008
 11009, 11180, 11181, 11352, 11353, 11524, 11525, 11696, 11697, 11868
*Nset, nset=_PickedSet53, internal, instance=comp-up-1
    9,   10,   15,   16,  176,  177,  178,  179,  180,  181,  182,  183,  184,  185,  186,  187
  188,  189,  190,  191,  192,  193,  194,  195,  196,  197,  198,  411,  412,  413,  414,  415
  416,  417,  418,  419,  420,  421,  422,  423,  424,  425,  426,  427,  428,  429,  430,  431
 4376, 4377, 4382, 4383, 4543, 4544, 4545, 4546, 4547, 4548, 4549, 4550, 4551, 4552, 4553, 4554
 4555, 4556, 4557, 4558, 4559, 4560, 4561, 4562, 4563, 4564, 4565, 4778, 4779, 4780, 4781, 4782
 4783, 4784, 4785, 4786, 4787, 4788, 4789, 4790, 4791, 4792, 4793, 4794, 4795, 4796, 4797, 4798
 8743, 8744, 8749, 8750, 8910, 8911, 8912, 8913, 8914, 8915, 8916, 8917, 8918, 8919, 8920, 8921
 8922, 8923, 8924, 8925, 8926, 8927, 8928, 8929, 8930, 8931, 8932, 9145, 9146, 9147, 9148, 9149
 9150, 9151, 9152, 9153, 9154, 9155, 9156, 9157, 9158, 9159, 9160, 9161, 9162, 9163, 9164, 9165
*Nset, nset=_PickedSet53, internal, instance=mand-1
    1,  169,  170,  338,  339,  507,  508,  676,  677,  845,  846, 1014, 1015, 1183, 1184, 1352
 1353, 1521, 1522, 1690, 1691, 1859, 1860, 2028, 2029, 2197, 2198, 2366, 2367, 2535, 2536, 2704
 2705, 2873, 2874, 3042, 3043, 3211, 3212, 3380, 3381, 3549, 3550, 3718, 3719, 3887, 3888, 4056
 4057, 4225, 4226, 4394, 4395, 4563, 4564, 4732, 4733, 4901, 4902, 5070, 5071, 5239, 5240, 5408
 5409, 5577, 5578, 5746, 5747, 5915, 5916, 6084, 6085, 6253, 6254, 6422, 6423, 6591, 6592, 6760
 6761, 6929, 6930, 7098, 7099, 7267, 7268, 7436, 7437, 7605, 7606, 7774
*Elset, elset=_PickedSet53, internal, instance=hous-1
    1,  182,  183,  364,  365,  546,  547,  728,  729,  910,  911, 1092, 1093, 1274, 1275, 1456
 1457, 1638, 1639, 1820, 1821, 2002, 2003, 2184, 2185, 2366, 2367, 2548, 2549, 2730, 2731, 2912
 2913, 3094, 3095, 3276, 3277, 3458, 3459, 3640, 3641, 3822, 3823, 4004
*Elset, elset=_PickedSet53, internal, instance=comp-down-1
    1,  171,  172,  342,  343,  513,  514,  684,  685,  855,  856, 1026, 1027, 1197, 1198, 1368
 1369, 1539, 1540, 1710, 1711, 1881, 1882, 2052, 2053, 2223, 2224, 2394, 2395, 2565, 2566, 2736
 2737, 2907, 2908, 3078, 3079, 3249, 3250, 3420, 3421, 3591, 3592, 3762, 3763, 3933, 3934, 4104
 4105, 4275, 4276, 4446, 4447, 4617, 4618, 4788, 4789, 4959, 4960, 5130, 5131, 5301, 5302, 5472
 5473, 5643, 5644, 5814, 5815, 5985, 5986, 6156, 6157, 6327, 6328, 6498, 6499, 6669, 6670, 6840
 6841, 7011, 7012, 7182, 7183, 7353, 7354, 7524
*Elset, elset=_PickedSet53, internal, instance=comp-up-1
  373,  451,  529,  607,  685,  763,  841,  919,  997, 1075, 1153, 1231, 1309, 1387, 1465, 1543
 1621, 1699, 1777, 1855, 1933, 2011, 2089, 2167, 2521, 2599, 2677, 2755, 2833, 2911, 2989, 3067
 3145, 3223, 3301, 3379, 3457, 3535, 3613, 3691, 3769, 3847, 3925, 4003, 4081, 4159, 4532, 4610
 4688, 4766, 4844, 4922, 5000, 5078, 5156, 5234, 5312, 5390, 5468, 5546, 5624, 5702, 5780, 5858
 5936, 6014, 6092, 6170, 6248, 6326, 6680, 6758, 6836, 6914, 6992, 7070, 7148, 7226, 7304, 7382
 7460, 7538, 7616, 7694, 7772, 7850, 7928, 8006, 8084, 8162, 8240, 8318
*Elset, elset=_PickedSet53, internal, instance=mand-1
    1,  168,  169,  336,  337,  504,  505,  672,  673,  840,  841, 1008, 1009, 1176, 1177, 1344
 1345, 1512, 1513, 1680, 1681, 1848, 1849, 2016, 2017, 2184, 2185, 2352, 2353, 2520, 2521, 2688
 2689, 2856, 2857, 3024, 3025, 3192, 3193, 3360, 3361, 3528, 3529, 3696
*Nset, nset=_PickedSet54, internal, instance=hous-1
    1,    2,    3,    4,    5,    6,    7,    8,    9,   10,   11,   12,   13,   14,   15,   16
   17,   18,   19,   20,   21,   22,   23,   24,   25,   26,   27,   28,   29,   30,   31,   32
   33,   34,   35,   36,   37,   38,   39,   40,   41,   42,   43,   44,   45,   46,   47,   48
   49,   50,   51,   52,   53,   54,   55,   56,   57,   58,   59,   60,   61,   62,   63,   64
   65,   66,   67,   68,   69,   70,   71,   72,   73,   74,   75,   76,   77,   78,   79,   80
   81,   82,   83,   84,   85,   86,   87,   88,   89,   90,   91,   92,   93,   94,   95,   96
   97,   98,   99,  100,  101,  102,  103,  104,  105,  106,  107,  108,  109,  110,  111,  112
  113,  114,  115,  116,  117,  118,  119,  120,  121,  122,  123,  124,  125,  126,  127,  128
  129,  130,  131,  132,  133,  134,  135,  136,  137,  138,  139,  140,  141,  142,  143,  144
  145,  146,  147,  148,  149,  150,  151,  152,  153,  154,  155,  156,  157,  158,  159,  160
  161,  162,  163,  164,  165,  166,  167,  168,  169,  170,  171,  172,  173,  174,  175,  176
  177,  178,  179,  180,  181,  182,  183, 4210, 4211, 4212, 4213, 4214, 4215, 4216, 4217, 4218
 4219, 4220, 4221, 4222, 4223, 4224, 4225, 4226, 4227, 4228, 4229, 4230, 4231, 4232, 4233, 4234
 4235, 4236, 4237, 4238, 4239, 4240, 4241, 4242, 4243, 4244, 4245, 4246, 4247, 4248, 4249, 4250
 4251, 4252, 4253, 4254, 4255, 4256, 4257, 4258, 4259, 4260, 4261, 4262, 4263, 4264, 4265, 4266
 4267, 4268, 4269, 4270, 4271, 4272, 4273, 4274, 4275, 4276, 4277, 4278, 4279, 4280, 4281, 4282
 4283, 4284, 4285, 4286, 4287, 4288, 4289, 4290, 4291, 4292, 4293, 4294, 4295, 4296, 4297, 4298
 4299, 4300, 4301, 4302, 4303, 4304, 4305, 4306, 4307, 4308, 4309, 4310, 4311, 4312, 4313, 4314
 4315, 4316, 4317, 4318, 4319, 4320, 4321, 4322, 4323, 4324, 4325, 4326, 4327, 4328, 4329, 4330
 4331, 4332, 4333, 4334, 4335, 4336, 4337, 4338, 4339, 4340, 4341, 4342, 4343, 4344, 4345, 4346
 4347, 4348, 4349, 4350, 4351, 4352, 4353, 4354, 4355, 4356, 4357, 4358, 4359, 4360, 4361, 4362
 4363, 4364, 4365, 4366, 4367, 4368, 4369, 4370, 4371, 4372, 4373, 4374, 4375, 4376, 4377, 4378
 4379, 4380, 4381, 4382, 4383, 4384, 4385, 4386, 4387, 4388, 4389, 4390, 4391, 4392
*Nset, nset=_PickedSet54, internal, instance=comp-down-1
    1,    2,    3,    4,    5,    6,    7,    8,    9,   10,   11,   12,   13,   14,   15,   16
   17,   18,   19,   20,   21,   22,   23,   24,   25,   26,   27,   28,   29,   30,   31,   32
   33,   34,   35,   36,   37,   38,   39,   40,   41,   42,   43,   44,   45,   46,   47,   48
   49,   50,   51,   52,   53,   54,   55,   56,   57,   58,   59,   60,   61,   62,   63,   64
   65,   66,   67,   68,   69,   70,   71,   72,   73,   74,   75,   76,   77,   78,   79,   80
   81,   82,   83,   84,   85,   86,   87,   88,   89,   90,   91,   92,   93,   94,   95,   96
   97,   98,   99,  100,  101,  102,  103,  104,  105,  106,  107,  108,  109,  110,  111,  112
  113,  114,  115,  116,  117,  118,  119,  120,  121,  122,  123,  124,  125,  126,  127,  128
  129,  130,  131,  132,  133,  134,  135,  136,  137,  138,  139,  140,  141,  142,  143,  144
  145,  146,  147,  148,  149,  150,  151,  152,  153,  154,  155,  156,  157,  158,  159,  160
  161,  162,  163,  164,  165,  166,  167,  168,  169,  170,  171,  172, 3957, 3958, 3959, 3960
 3961, 3962, 3963, 3964, 3965, 3966, 3967, 3968, 3969, 3970, 3971, 3972, 3973, 3974, 3975, 3976
 3977, 3978, 3979, 3980, 3981, 3982, 3983, 3984, 3985, 3986, 3987, 3988, 3989, 3990, 3991, 3992
 3993, 3994, 3995, 3996, 3997, 3998, 3999, 4000, 4001, 4002, 4003, 4004, 4005, 4006, 4007, 4008
 4009, 4010, 4011, 4012, 4013, 4014, 4015, 4016, 4017, 4018, 4019, 4020, 4021, 4022, 4023, 4024
 4025, 4026, 4027, 4028, 4029, 4030, 4031, 4032, 4033, 4034, 4035, 4036, 4037, 4038, 4039, 4040
 4041, 4042, 4043, 4044, 4045, 4046, 4047, 4048, 4049, 4050, 4051, 4052, 4053, 4054, 4055, 4056
 4057, 4058, 4059, 4060, 4061, 4062, 4063, 4064, 4065, 4066, 4067, 4068, 4069, 4070, 4071, 4072
 4073, 4074, 4075, 4076, 4077, 4078, 4079, 4080, 4081, 4082, 4083, 4084, 4085, 4086, 4087, 4088
 4089, 4090, 4091, 4092, 4093, 4094, 4095, 4096, 4097, 4098, 4099, 4100, 4101, 4102, 4103, 4104
** ... 13 like lines cut
*Nset, nset=_PickedSet54, internal, instance=comp-up-1
    3,    4,   10,   13,   15,   40,   41,   42,   43,   44,   45,   46,   47,   48,   49,   50
  199,  200,  201,  202,  203,  204,  205,  206,  207,  208,  209,  210,  211,  212,  213,  214
  215,  216,  217,  218,  219,  220,  221,  222,  223,  224,  225,  226,  227,  228,  229,  230
  231,  232,  233,  234,  235,  236,  237,  238,  239,  240,  241,  242,  243,  244,  245,  246
  247,  248,  249,  250,  251,  252,  253,  254,  255,  256,  257,  258,  259,  260,  261,  262
  263,  264,  265,  266,  267,  268,  269,  270,  271,  272,  273,  274,  275,  301,  302,  303
  304,  305,  306,  307,  308,  309,  310,  311,  334,  335,  336,  337,  338,  339,  340,  341
  342,  343,  344,  345,  346,  347,  348,  349,  350,  351,  352,  353,  354,  355,  356,  357
  358,  359,  360,  361,  362,  363,  364,  365,  366,  367,  368,  369,  370,  371,  372,  373
  374,  375,  376,  377,  378,  379,  380,  381,  382,  383,  384,  385,  386,  387,  388,  389
  390,  391,  392,  393,  394,  395,  396,  397,  398,  399,  400,  401,  402,  403,  404,  405
  406,  407,  408,  409,  410, 4370, 4371, 4377, 4380, 4382, 4407, 4408, 4409, 4410, 4411, 4412
 4413, 4414, 4415, 4416, 4417, 4566, 4567, 4568, 4569, 4570, 4571, 4572, 4573, 4574, 4575, 4576
 4577, 4578, 4579, 4580, 4581, 4582, 4583, 4584, 4585, 4586, 4587, 4588, 4589, 4590, 4591, 4592
 4593, 4594, 4595, 4596, 4597, 4598, 4599, 4600, 4601, 4602, 4603, 4604, 4605, 4606, 4607, 4608
 4609, 4610, 4611, 4612, 4613, 4614, 4615, 4616, 4617, 4618, 4619, 4620, 4621, 4622, 4623, 4624
 4625, 4626, 4627, 4628, 4629, 4630, 4631, 4632, 4633, 4634, 4635, 4636, 4637, 4638, 4639, 4640
 4641, 4642, 4668, 4669, 4670, 4671, 4672, 4673, 4674, 4675, 4676, 4677, 4678, 4701, 4702, 4703
 4704, 4705, 4706, 4707, 4708, 4709, 4710, 4711, 4712, 4713, 4714, 4715, 4716, 4717, 4718, 4719
 4720, 4721, 4722, 4723, 4724, 4725, 4726, 4727, 4728, 4729, 4730, 4731, 4732, 4733, 4734, 4735
** ... 14 like lines cut
*Nset, nset=_PickedSet54, internal, instance=mand-1
    1,    2,    3,    4,    5,    6,    7,    8,    9,   10,   11,   12,   13,   14,   15,   16
   17,   18,   19,   20,   21,   22,   23,   24,   25,   26,   27,   28,   29,   30,   31,   32
   33,   34,   35,   36,   37,   38,   39,   40,   41,   42,   43,   44,   45,   46,   47,   48
   49,   50,   51,   52,   53,   54,   55,   56,   57,   58,   59,   60,   61,   62,   63,   64
   65,   66,   67,   68,   69,   70,   71,   72,   73,   74,   75,   76,   77,   78,   79,   80
   81,   82,   83,   84,   85,   86,   87,   88,   89,   90,   91,   92,   93,   94,   95,   96
   97,   98,   99,  100,  101,  102,  103,  104,  105,  106,  107,  108,  109,  110,  111,  112
  113,  114,  115,  116,  117,  118,  119,  120,  121,  122,  123,  124,  125,  126,  127,  128
  129,  130,  131,  132,  133,  134,  135,  136,  137,  138,  139,  140,  141,  142,  143,  144
  145,  146,  147,  148,  149,  150,  151,  152,  153,  154,  155,  156,  157,  158,  159,  160
  161,  162,  163,  164,  165,  166,  167,  168,  169, 3888, 3889, 3890, 3891, 3892, 3893, 3894
 3895, 3896, 3897, 3898, 3899, 3900, 3901, 3902, 3903, 3904, 3905, 3906, 3907, 3908, 3909, 3910
 3911, 3912, 3913, 3914, 3915, 3916, 3917, 3918, 3919, 3920, 3921, 3922, 3923, 3924, 3925, 3926
 3927, 3928, 3929, 3930, 3931, 3932, 3933, 3934, 3935, 3936, 3937, 3938, 3939, 3940, 3941, 3942
 3943, 3944, 3945, 3946, 3947, 3948, 3949, 3950, 3951, 3952, 3953, 3954, 3955, 3956, 3957, 3958
 3959, 3960, 3961, 3962, 3963, 3964, 3965, 3966, 3967, 3968, 3969, 3970, 3971, 3972, 3973, 3974
 3975, 3976, 3977, 3978, 3979, 3980, 3981, 3982, 3983, 3984, 3985, 3986, 3987, 3988, 3989, 3990
 3991, 3992, 3993, 3994, 3995, 3996, 3997, 3998, 3999, 4000, 4001, 4002, 4003, 4004, 4005, 4006
 4007, 4008, 4009, 4010, 4011, 4012, 4013, 4014, 4015, 4016, 4017, 4018, 4019, 4020, 4021, 4022
 4023, 4024, 4025, 4026, 4027, 4028, 4029, 4030, 4031, 4032, 4033, 4034, 4035, 4036, 4037, 4038
 4039, 4040, 4041, 4042, 4043, 4044, 4045, 4046, 4047, 4048, 4049, 4050, 4051, 4052, 4053, 4054
 4055, 4056
*Elset, elset=_PickedSet54, internal, instance=hous-1, generate
   1,  182,    1
*Elset, elset=_PickedSet54, internal, instance=comp-down-1
    1,    2,    3,    4,    5,    6,    7,    8,    9,   10,   11,   12,   13,   14,   15,   16
   17,   18,   19,   20,   21,   22,   23,   24,   25,   26,   27,   28,   29,   30,   31,   32
   33,   34,   35,   36,   37,   38,   39,   40,   41,   42,   43,   44,   45,   46,   47,   48
   49,   50,   51,   52,   53,   54,   55,   56,   57,   58,   59,   60,   61,   62,   63,   64
   65,   66,   67,   68,   69,   70,   71,   72,   73,   74,   75,   76,   77,   78,   79,   80
   81,   82,   83,   84,   85,   86,   87,   88,   89,   90,   91,   92,   93,   94,   95,   96
   97,   98,   99,  100,  101,  102,  103,  104,  105,  106,  107,  108,  109,  110,  111,  112
  113,  114,  115,  116,  117,  118,  119,  120,  121,  122,  123,  124,  125,  126,  127,  128
  129,  130,  131,  132,  133,  134,  135,  136,  137,  138,  139,  140,  141,  142,  143,  144
  145,  146,  147,  148,  149,  150,  151,  152,  153,  154,  155,  156,  157,  158,  159,  160
  161,  162,  163,  164,  165,  166,  167,  168,  169,  170,  171, 3763, 3764, 3765, 3766, 3767
 3768, 3769, 3770, 3771, 3772, 3773, 3774, 3775, 3776, 3777, 3778, 3779, 3780, 3781, 3782, 3783
 3784, 3785, 3786, 3787, 3788, 3789, 3790, 3791, 3792, 3793, 3794, 3795, 3796, 3797, 3798, 3799
 3800, 3801, 3802, 3803, 3804, 3805, 3806, 3807, 3808, 3809, 3810, 3811, 3812, 3813, 3814, 3815
 3816, 3817, 3818, 3819, 3820, 3821, 3822, 3823, 3824, 3825, 3826, 3827, 3828, 3829, 3830, 3831
 3832, 3833, 3834, 3835, 3836, 3837, 3838, 3839, 3840, 3841, 3842, 3843, 3844, 3845, 3846, 3847
 3848, 3849, 3850, 3851, 3852, 3853, 3854, 3855, 3856, 3857, 3858, 3859, 3860, 3861, 3862, 3863
 3864, 3865, 3866, 3867, 3868, 3869, 3870, 3871, 3872, 3873, 3874, 3875, 3876, 3877, 3878, 3879
 3880, 3881, 3882, 3883, 3884, 3885, 3886, 3887, 3888, 3889, 3890, 3891, 3892, 3893, 3894, 3895
 3896, 3897, 3898, 3899, 3900, 3901, 3902, 3903, 3904, 3905, 3906, 3907, 3908, 3909, 3910, 3911
 3912, 3913, 3914, 3915, 3916, 3917, 3918, 3919, 3920, 3921, 3922, 3923, 3924, 3925, 3926, 3927
 3928, 3929, 3930, 3931, 3932, 3933
*Elset, elset=_PickedSet54, internal, instance=comp-up-1
   23,   33,   43,   53,   63,   73,   83,   93,  103,  113,  123,  124, 2090, 2091, 2092, 2093
 2094, 2095, 2096, 2097, 2098, 2099, 2100, 2101, 2102, 2103, 2104, 2105, 2106, 2107, 2108, 2109
 2110, 2111, 2112, 2113, 2114, 2115, 2116, 2117, 2118, 2119, 2120, 2121, 2122, 2123, 2124, 2125
 2126, 2127, 2128, 2129, 2130, 2131, 2132, 2133, 2134, 2135, 2136, 2137, 2138, 2139, 2140, 2141
 2142, 2143, 2144, 2145, 2146, 2147, 2148, 2149, 2150, 2151, 2152, 2153, 2154, 2155, 2156, 2157
 2158, 2159, 2160, 2161, 2162, 2163, 2164, 2165, 2166, 2167, 2207, 2208, 2209, 2210, 2211, 2212
 2213, 2214, 2215, 2216, 2217, 2218, 2444, 2445, 2446, 2447, 2448, 2449, 2450, 2451, 2452, 2453
 2454, 2455, 2456, 2457, 2458, 2459, 2460, 2461, 2462, 2463, 2464, 2465, 2466, 2467, 2468, 2469
 2470, 2471, 2472, 2473, 2474, 2475, 2476, 2477, 2478, 2479, 2480, 2481, 2482, 2483, 2484, 2485
 2486, 2487, 2488, 2489, 2490, 2491, 2492, 2493, 2494, 2495, 2496, 2497, 2498, 2499, 2500, 2501
 2502, 2503, 2504, 2505, 2506, 2507, 2508, 2509, 2510, 2511, 2512, 2513, 2514, 2515, 2516, 2517
 2518, 2519, 2520, 2521, 4182, 4192, 4202, 4212, 4222, 4232, 4242, 4252, 4262, 4272, 4282, 4283
 6249, 6250, 6251, 6252, 6253, 6254, 6255, 6256, 6257, 6258, 6259, 6260, 6261, 6262, 6263, 6264
 6265, 6266, 6267, 6268, 6269, 6270, 6271, 6272, 6273, 6274, 6275, 6276, 6277, 6278, 6279, 6280
 6281, 6282, 6283, 6284, 6285, 6286, 6287, 6288, 6289, 6290, 6291, 6292, 6293, 6294, 6295, 6296
 6297, 6298, 6299, 6300, 6301, 6302, 6303, 6304, 6305, 6306, 6307, 6308, 6309, 6310, 6311, 6312
 6313, 6314, 6315, 6316, 6317, 6318, 6319, 6320, 6321, 6322, 6323, 6324, 6325, 6326, 6366, 6367
 6368, 6369, 6370, 6371, 6372, 6373, 6374, 6375, 6376, 6377, 6603, 6604, 6605, 6606, 6607, 6608
 6609, 6610, 6611, 6612, 6613, 6614, 6615, 6616, 6617, 6618, 6619, 6620, 6621, 6622, 6623, 6624
 6625, 6626, 6627, 6628, 6629, 6630, 6631, 6632, 6633, 6634, 6635, 6636, 6637, 6638, 6639, 6640
 6641, 6642, 6643, 6644, 6645, 6646, 6647, 6648, 6649, 6650, 6651, 6652, 6653, 6654, 6655, 6656
 6657, 6658, 6659, 6660, 6661, 6662, 6663, 6664, 6665, 6666, 6667, 6668, 6669, 6670, 6671, 6672
 6673, 6674, 6675, 6676, 6677, 6678, 6679, 6680
*Elset, elset=_PickedSet54, internal, instance=mand-1, generate
   1,  168,    1
*Nset, nset=_PickedSet80, internal, instance=comp-up-1
 8744, 8749
*Elset, elset=_CP-2-comp-up-1_S1, internal, instance=comp-up-1, generate
    1,  4159,     1
*Surface, type=ELEMENT, name=CP-2-comp-up-1
_CP-2-comp-up-1_S1, S1
*Elset, elset=_CP-2-hous-1_S2, internal, instance=hous-1, generate
    1,  4004,     1
*Surface, type=ELEMENT, name=CP-2-hous-1
_CP-2-hous-1_S2, S2
*Elset, elset=_CP-4-comp-down-1_S1, internal, instance=comp-down-1, generate
 3763,  7524,     1
*Surface, type=ELEMENT, name=CP-4-comp-down-1
_CP-4-comp-down-1_S1, S1
*Elset, elset=_CP-4-comp-up-1_S2, internal, instance=comp-up-1, generate
 4160,  8318,     1
*Surface, type=ELEMENT, name=CP-4-comp-up-1
_CP-4-comp-up-1_S2, S2
*Elset, elset=_CP-4-hous-1_S2, internal, instance=hous-1, generate
    1,  4004,     1
*Surface, type=ELEMENT, name=CP-4-hous-1
_CP-4-hous-1_S2, S2
*Elset, elset=_CP-5-comp-down-1_S2, internal, instance=comp-down-1, generate
    1,  3762,     1
*Surface, type=ELEMENT, name=CP-5-comp-down-1
_CP-5-comp-down-1_S2, S2
*Elset, elset=_CP-5-mand-1_S1, internal, instance=mand-1, generate
    1,  3696,     1
*Surface, type=ELEMENT, name=CP-5-mand-1
_CP-5-mand-1_S1, S1
*Elset, elset=__PickedSurf52_S1, internal, instance=hous-1, generate
    1,  4004,     1
*Elset, elset=__PickedSurf52_S2, internal, instance=mand-1, generate
    1,  3696,     1
*Surface, type=ELEMENT, name=_PickedSurf52, internal
__PickedSurf52_S1, S1
__PickedSurf52_S2, S2
*Elset, elset=__Int-1_gcs0_1_S1, internal, instance=hous-1, generate
    1,  4004,     1
*Surface, type=ELEMENT, name=_Int-1_gcs0_1, internal
__Int-1_gcs0_1_S1, S1
*Elset, elset=__Int-1_gcs0_3_S2, internal, instance=hous-1, generate
    1,  4004,     1
*Surface, type=ELEMENT, name=_Int-1_gcs0_3, internal
__Int-1_gcs0_3_S2, S2
*Elset, elset=__Int-1_gcs0_7_S1, internal, instance=comp-down-1, generate
 3763,  7524,     1
*Surface, type=ELEMENT, name=_Int-1_gcs0_7, internal
__Int-1_gcs0_7_S1, S1
*Elset, elset=__Int-1_gcs0_9_S2, internal, instance=comp-down-1, generate
    1,  3762,     1
*Surface, type=ELEMENT, name=_Int-1_gcs0_9, internal
__Int-1_gcs0_9_S2, S2
*Elset, elset=__Int-1_gcs0_13_S5, internal, instance=comp-up-1
    1,  162, 2196, 2307, 4160, 4321, 6355, 6466
*Elset, elset=__Int-1_gcs0_13_S4, internal, instance=comp-up-1
  135,  159,  161, 2192, 2195, 2443, 4294, 4318, 4320, 6351, 6354, 6602
*Surface, type=ELEMENT, name=_Int-1_gcs0_13, internal
__Int-1_gcs0_13_S5, S5
__Int-1_gcs0_13_S4, S4
*Elset, elset=__Int-1_gcs0_14_S1, internal, instance=comp-up-1, generate
    1,  4159,     1
*Surface, type=ELEMENT, name=_Int-1_gcs0_14, internal
__Int-1_gcs0_14_S1, S1
*Elset, elset=__Int-1_gcs0_16_S2, internal, instance=comp-up-1, generate
 4160,  8318,     1
*Surface, type=ELEMENT, name=_Int-1_gcs0_16, internal
__Int-1_gcs0_16_S2, S2
*Elset, elset=__Int-1_gcs0_20_S1, internal, instance=mand-1, generate
    1,  3696,     1
*Surface, type=ELEMENT, name=_Int-1_gcs0_20, internal
__Int-1_gcs0_20_S1, S1
*Elset, elset=__Int-1_gcs0_22_S2, internal, instance=mand-1, generate
    1,  3696,     1
*Surface, type=ELEMENT, name=_Int-1_gcs0_22, internal
__Int-1_gcs0_22_S2, S2
*End Assembly
** 
** MATERIALS
** 
*Material, name="alloy 625"
*Density
8440.,
*Elastic
 2.07e+11, 0.3
*Material, name=mc
*Density
2007.,
*Elastic
 2.055e+10, 0.2
** 
** INTERACTION PROPERTIES
** 
*Surface Interaction, name=IntProp-1
1.,
*Friction, rough
*Surface Behavior, pressure-overclosure=HARD
** 
** BOUNDARY CONDITIONS
** 
** Name: BC-1 Type: Symmetry/Antisymmetry/Encastre
*Boundary
_PickedSet53, XSYMM
** Name: BC-3 Type: Symmetry/Antisymmetry/Encastre
*Boundary
_PickedSet80, ENCASTRE
** 
** INTERACTIONS
** 
** Interaction: Int-1
*Contact
*Contact Inclusions, ALL EXTERIOR
*Contact Property Assignment
 ,  , IntProp-1
*Surface Property Assignment, property=GEOMETRIC CORRECTION
_Int-1_gcs0_1, Circumferential, 0., 0., 0.,  0., 0., 1.
_Int-1_gcs0_3, Circumferential, 0., 0., 0.,  0., 0., 1.
_Int-1_gcs0_7, Circumferential, 0., 0., 0.,  0., 0., 1.
_Int-1_gcs0_9, Circumferential, 0., 0., 0.,  0., 0., 1.
_Int-1_gcs0_13, Circumferential, 0.288, 0., 0.0555,  -0.712, 0., 0.0555
_Int-1_gcs0_14, Circumferential, 0., 0., 0.,  0., 0., 1.
_Int-1_gcs0_16, Circumferential, 0., 0., 0.,  0., 0., 1.
_Int-1_gcs0_20, Circumferential, 0., 0., 0.,  0., 0., 1.
_Int-1_gcs0_22, Circumferential, 0., 0., 0.,  0., 0., 1.
** ----------------------------------------------------------------
** 
** STEP: Step-1
** 
*Step, name=Step-1, nlgeom=NO
*Static
1., 1., 1e-05, 1.
** 
** LOADS
** 
** Name: Load-1   Type: Pressure
*Dsload
_PickedSurf52, P, 1.03421e+08
** 
** OUTPUT REQUESTS
** 
*Restart, write, frequency=0
** 
** FIELD OUTPUT: F-Output-1
** 
*Output, field
*Node Output
COORD, U
*Element Output, directions=YES
S, 
** 
** HISTORY OUTPUT: H-Output-1
** 
*Output, history, variable=PRESELECT
*End Step
