*Heading
** Job name: test3 Model name: Model-3-solidWithHole
** Generated by: Abaqus/CAE 2019
*Preprint, echo=NO, model=NO, history=NO, contact=NO
**
** PARTS
**
*Part, name=comp-down
*Node
      1,           0., -0.268000007,  0.111000001
      2, 0.00492338883, -0.267954767,  0.111000001
      3, 0.00984511524, -0.267819107,  0.111000001
      4, 0.0147635201, -0.267593056,  0.111000001
      5, 0.0196769405, -0.267276675,  0.111000001
      6, 0.0245837215, -0.266870081,  0.111000001
      7, 0.0294822026, -0.266373426,  0.111000001
      8, 0.0343707353, -0.265786856,  0.111000001
      9, 0.0392476656, -0.265110582,  0.111000001
     10, 0.0441113487, -0.264344841,  0.111000001
     11, 0.0489601456, -0.263489842,  0.111000001
     12,  0.053792417, -0.262545943,  0.111000001
     13, 0.0586065315, -0.261513442,  0.111000001
     14, 0.0634008646, -0.260392636,  0.111000001
     15, 0.0681738034, -0.259183973,  0.111000001
     16, 0.0729237273,  -0.25788781,  0.111000001
     17,  0.077649042, -0.256504625,  0.111000001
     18, 0.0823481455, -0.255034864,  0.111000001
     19, 0.0870194584, -0.253479034,  0.111000001
     20, 0.0916614011, -0.251837611,  0.111000001
** ... 11848 like lines cut
*Element, type=C3D8
   1,  3957,  3958,  4130,  4129,     1,     2,   174,   173
   2,  3958,  3959,  4131,  4130,     2,     3,   175,   174
   3,  3959,  3960,  4132,  4131,     3,     4,   176,   175
   4,  3960,  3961,  4133,  4132,     4,     5,   177,   176
   5,  3961,  3962,  4134,  4133,     5,     6,   178,   177
   6,  3962,  3963,  4135,  4134,     6,     7,   179,   178
   7,  3963,  3964,  4136,  4135,     7,     8,   180,   179
   8,  3964,  3965,  4137,  4136,     8,     9,   181,   180
   9,  3965,  3966,  4138,  4137,     9,    10,   182,   181
  10,  3966,  3967,  4139,  4138,    10,    11,   183,   182
  11,  3967,  3968,  4140,  4139,    11,    12,   184,   183
  12,  3968,  3969,  4141,  4140,    12,    13,   185,   184
  13,  3969,  3970,  4142,  4141,    13,    14,   186,   185
  14,  3970,  3971,  4143,  4142,    14,    15,   187,   186
  15,  3971,  3972,  4144,  4143,    15,    16,   188,   187
  16,  3972,  3973,  4145,  4144,    16,    17,   189,   188
  17,  3973,  3974,  4146,  4145,    17,    18,   190,   189
  18,  3974,  3975,  4147,  4146,    18,    19,   191,   190
  19,  3975,  3976,  4148,  4147,    19,    20,   192,   191
  20,  3976,  3977,  4149,  4148,    20,    21,   193,   192
** ... 7504 like lines cut
*Nset, nset=_PickedSet2, internal, generate
     1,  11868,      1
*Elset, elset=_PickedSet2, internal, generate
    1,  7524,     1
** Section: com
*Solid Section, elset=_PickedSet2, material=mc
,
*End Part
**  
*Part, name=comp-up
*Node
      1,  0.287311226, 0.0199063625,  0.057433065
      2,  0.273866653, 0.0891126022, 0.0592197254
      3,  0.273903638, 0.0889988542,  0.111000001
      4,  0.287999988, -7.89633632e-05,  0.111000001
      5,  0.287999988,           0., 0.0754999965
      6,  0.287999988,           0., 0.0355000012
      7,  0.287999988, 7.89633632e-05,           0.
      8,  0.273934543, 0.0889036655,           0.
      9,           0.,  0.287999988,           0.
     10,           0.,  0.287999988,  0.111000001
     11,  0.273866653, -0.0891126022,  0.051780276
     12,  0.287311226, -0.0199063625, 0.0535669364
     13,  0.273934543, -0.0889036655,  0.111000001
     14,  0.273903638, -0.0889988542,           0.
     15,           0., -0.287999988,  0.111000001
     16,           0., -0.287999988,           0.
     17,  0.287963659, 0.00457555382, 0.0749695748
     18,  0.287855268, 0.00912961178, 0.0732946694
     19,  0.287688345, 0.0133943548, 0.0703523159
     20,  0.287510395,  0.016785847,  0.066373609
** ... 12394 like lines cut
*Element, type=C3D8
   1,   515,   517,    20,    19,  4653,  4655,  4158,  4157
   2,   517,   516,    21,    20,  4655,  4654,  4159,  4158
   3,   516,    22,     1,    21,  4654,  4160,  4139,  4159
   4,   516,   540,    23,    22,  4654,  4678,  4161,  4160
   5,   540,   541,    24,    23,  4678,  4679,  4162,  4161
   6,   541,   542,    25,    24,  4679,  4680,  4163,  4162
   7,   542,   543,    26,    25,  4680,  4681,  4164,  4163
   8,   543,   544,    27,    26,  4681,  4682,  4165,  4164
   9,   544,   545,    28,    27,  4682,  4683,  4166,  4165
  10,   545,   546,    29,    28,  4683,  4684,  4167,  4166
  11,   546,   547,    30,    29,  4684,  4685,  4168,  4167
  12,   547,   548,    31,    30,  4685,  4686,  4169,  4168
  13,   548,   549,    32,    31,  4686,  4687,  4170,  4169
  14,   549,   550,    33,    32,  4687,  4688,  4171,  4170
  15,   550,   551,    34,    33,  4688,  4689,  4172,  4171
  16,   551,   552,    35,    34,  4689,  4690,  4173,  4172
  17,   552,   553,    36,    35,  4690,  4691,  4174,  4173
  18,   553,    37,     2,    36,  4691,  4175,  4140,  4174
  19,   517,   554,   540,   516,  4655,  4692,  4678,  4654
  20,   554,   555,   541,   540,  4692,  4693,  4679,  4678
** ... 7828 like lines cut
*Nset, nset=_PickedSet2, internal, generate
     1,  12414,      1
*Elset, elset=_PickedSet2, internal, generate
    1,  7848,     1
** Section: com
*Solid Section, elset=_PickedSet2, material=mc
,
*End Part
**  
*Part, name=hous
*Node
      1,           0., -0.287999988,  0.111000001
      2, 0.00497106463, -0.287957102,  0.111000001
      3, 0.00994064845, -0.287828386,  0.111000001
      4, 0.0149072697, -0.287613928,  0.111000001
      5, 0.0198694505, -0.287313789,  0.111000001
      6, 0.0248257089, -0.286927998,  0.111000001
      7, 0.0297745727, -0.286456764,  0.111000001
      8, 0.0347145647, -0.285900146,  0.111000001
      9, 0.0396442115, -0.285258383,  0.111000001
     10, 0.0445620492, -0.284531593,  0.111000001
     11, 0.0494666062, -0.283720016,  0.111000001
     12,  0.054356426,  -0.28282395,  0.111000001
     13, 0.0592300519, -0.281843573,  0.111000001
     14, 0.0640860274, -0.280779243,  0.111000001
     15, 0.0689229146, -0.279631257,  0.111000001
     16, 0.0737392604, -0.278399944,  0.111000001
     17, 0.0785336345, -0.277085662,  0.111000001
     18, 0.0833046138, -0.275688857,  0.111000001
     19, 0.0880507678, -0.274209887,  0.111000001
     20, 0.0927706882, -0.272649229,  0.111000001
** ... 8398 like lines cut
*Element, type=C3D8
   1, 4210, 4211, 4394, 4393,    1,    2,  185,  184
   2, 4211, 4212, 4395, 4394,    2,    3,  186,  185
   3, 4212, 4213, 4396, 4395,    3,    4,  187,  186
   4, 4213, 4214, 4397, 4396,    4,    5,  188,  187
   5, 4214, 4215, 4398, 4397,    5,    6,  189,  188
   6, 4215, 4216, 4399, 4398,    6,    7,  190,  189
   7, 4216, 4217, 4400, 4399,    7,    8,  191,  190
   8, 4217, 4218, 4401, 4400,    8,    9,  192,  191
   9, 4218, 4219, 4402, 4401,    9,   10,  193,  192
  10, 4219, 4220, 4403, 4402,   10,   11,  194,  193
  11, 4220, 4221, 4404, 4403,   11,   12,  195,  194
  12, 4221, 4222, 4405, 4404,   12,   13,  196,  195
  13, 4222, 4223, 4406, 4405,   13,   14,  197,  196
  14, 4223, 4224, 4407, 4406,   14,   15,  198,  197
  15, 4224, 4225, 4408, 4407,   15,   16,  199,  198
  16, 4225, 4226, 4409, 4408,   16,   17,  200,  199
  17, 4226, 4227, 4410, 4409,   17,   18,  201,  200
  18, 4227, 4228, 4411, 4410,   18,   19,  202,  201
  19, 4228, 4229, 4412, 4411,   19,   20,  203,  202
  20, 4229, 4230, 4413, 4412,   20,   21,  204,  203
** ... 3984 like lines cut
*Nset, nset=_PickedSet2, internal, generate
    1,  8418,     1
*Elset, elset=_PickedSet2, internal, generate
    1,  4004,     1
** Section: Section-1
*Solid Section, elset=_PickedSet2, material="alloy 625"
,
*End Part
**  
*Part, name=mand
*Node
      1,           0., -0.266000003,  0.111000001
      2, 0.00497389864, -0.265953481,  0.111000001
      3, 0.00994605757, -0.265813977,  0.111000001
      4, 0.0149147389, -0.265581518,  0.111000001
      5, 0.0198782049, -0.265256196,  0.111000001
      6, 0.0248347204, -0.264838129,  0.111000001
      7, 0.0297825504, -0.264327437,  0.111000001
      8, 0.0347199664, -0.263724327,  0.111000001
      9, 0.0396452434, -0.263029009,  0.111000001
     10,  0.044556655, -0.262241691,  0.111000001
     11, 0.0494524874, -0.261362672,  0.111000001
     12,  0.054331027, -0.260392278,  0.111000001
     13, 0.0591905676, -0.259330839,  0.111000001
     14, 0.0640294105, -0.258178681,  0.111000001
     15, 0.0688458681, -0.256936282,  0.111000001
     16, 0.0736382455, -0.255603999,  0.111000001
     17, 0.0784048736, -0.254182369,  0.111000001
     18, 0.0831440911, -0.252671838,  0.111000001
     19, 0.0878542289, -0.251072973,  0.111000001
     20,  0.092533648, -0.249386296,  0.111000001
** ... 7754 like lines cut
*Element, type=C3D8
   1, 3888, 3889, 4058, 4057,    1,    2,  171,  170
   2, 3889, 3890, 4059, 4058,    2,    3,  172,  171
   3, 3890, 3891, 4060, 4059,    3,    4,  173,  172
   4, 3891, 3892, 4061, 4060,    4,    5,  174,  173
   5, 3892, 3893, 4062, 4061,    5,    6,  175,  174
   6, 3893, 3894, 4063, 4062,    6,    7,  176,  175
   7, 3894, 3895, 4064, 4063,    7,    8,  177,  176
   8, 3895, 3896, 4065, 4064,    8,    9,  178,  177
   9, 3896, 3897, 4066, 4065,    9,   10,  179,  178
  10, 3897, 3898, 4067, 4066,   10,   11,  180,  179
  11, 3898, 3899, 4068, 4067,   11,   12,  181,  180
  12, 3899, 3900, 4069, 4068,   12,   13,  182,  181
  13, 3900, 3901, 4070, 4069,   13,   14,  183,  182
  14, 3901, 3902, 4071, 4070,   14,   15,  184,  183
  15, 3902, 3903, 4072, 4071,   15,   16,  185,  184
  16, 3903, 3904, 4073, 4072,   16,   17,  186,  185
  17, 3904, 3905, 4074, 4073,   17,   18,  187,  186
  18, 3905, 3906, 4075, 4074,   18,   19,  188,  187
  19, 3906, 3907, 4076, 4075,   19,   20,  189,  188
  20, 3907, 3908, 4077, 4076,   20,   21,  190,  189
** ... 3676 like lines cut
*Nset, nset=_PickedSet2, internal, generate
    1,  7774,     1
*Elset, elset=_PickedSet2, internal, generate
    1,  3696,     1
** Section: Section-1
*Solid Section, elset=_PickedSet2, material="alloy 625"
,
*End Part
**  
**
** ASSEMBLY
**
*Assembly, name=Assembly
**  
*Instance, name=hous-1, part=hous
*End Instance
**  
*Instance, name=comp-down-1, part=comp-down
*End Instance
**  
*Instance, name=comp-up-1, part=comp-up
*End Instance
**  
*Instance, name=mand-1, part=mand
*End Instance
**  
*Nset, nset=_PickedSet53, internal, instance=hous-1
    1,  183,  184,  366,  367,  549,  550,  732,  733,  915,  916, 1098, 1099, 1281, 1282, 1464
 1465, 1647, 1648, 1830, 1831, 2013, 2014, 2196, 2197, 2379, 2380, 2562, 2563, 2745, 2746, 2928
 2929, 3111, 3112, 3294, 3295, 3477, 3478, 3660, 3661, 3843, 3844, 4026, 4027, 4209, 4210, 4392
 4393, 4575, 4576, 4758, 4759, 4941, 4942, 5124, 5125, 5307, 5308, 5490, 5491, 5673, 5674, 5856
 5857, 6039, 6040, 6222, 6223, 6405, 6406, 6588, 6589, 6771, 6772, 6954, 6955, 7137, 7138, 7320
 7321, 7503, 7504, 7686, 7687, 7869, 7870, 8052, 8053, 8235, 8236, 8418
*Nset, nset=_PickedSet53, internal, instance=comp-down-1
     1,   172,   173,   344,   345,   516,   517,   688,   689,   860,   861,  1032,  1033,  1204,  1205,  1376
  1377,  1548,  1549,  1720,  1721,  1892,  1893,  2064,  2065,  2236,  2237,  2408,  2409,  2580,  2581,  2752
  2753,  2924,  2925,  3096,  3097,  3268,  3269,  3440,  3441,  3612,  3613,  3784,  3785,  3956,  3957,  4128
  4129,  4300,  4301,  4472,  4473,  4644,  4645,  4816,  4817,  4988,  4989,  5160,  5161,  5332,  5333,  5504
  5505,  5676,  5677,  5848,  5849,  6020,  6021,  6192,  6193,  6364,  6365,  6536,  6537,  6708,  6709,  6880
  6881,  7052,  7053,  7224,  7225,  7396,  7397,  7568,  7569,  7740,  7741,  7912,  7913,  8084,  8085,  8256
  8257,  8428,  8429,  8600,  8601,  8772,  8773,  8944,  8945,  9116,  9117,  9288,  9289,  9460,  9461,  9632
  9633,  9804,  9805,  9976,  9977, 10148, 10149, 10320, 10321, 10492, 10493, 10664, 10665, 10836, 10837, 11008
 11009, 11180, 11181, 11352, 11353, 11524, 11525, 11696, 11697, 11868
*Nset, nset=_PickedSet53, internal, instance=comp-up-1
    9,   10,   15,   16,  181,  182,  183,  184,  185,  186,  187,  188,  189,  190,  191,  192
  193,  194,  195,  196,  197,  198,  199,  200,  201,  423,  424,  425,  426,  427,  428,  429
  430,  431,  432,  433,  434,  435,  436,  437,  438,  439,  440,  441,  442,  443, 4147, 4148
 4153, 4154, 4319, 4320, 4321, 4322, 4323, 4324, 4325, 4326, 4327, 4328, 4329, 4330, 4331, 4332
 4333, 4334, 4335, 4336, 4337, 4338, 4339, 4561, 4562, 4563, 4564, 4565, 4566, 4567, 4568, 4569
 4570, 4571, 4572, 4573, 4574, 4575, 4576, 4577, 4578, 4579, 4580, 4581, 8285, 8286, 8291, 8292
 8457, 8458, 8459, 8460, 8461, 8462, 8463, 8464, 8465, 8466, 8467, 8468, 8469, 8470, 8471, 8472
 8473, 8474, 8475, 8476, 8477, 8699, 8700, 8701, 8702, 8703, 8704, 8705, 8706, 8707, 8708, 8709
 8710, 8711, 8712, 8713, 8714, 8715, 8716, 8717, 8718, 8719
*Nset, nset=_PickedSet53, internal, instance=mand-1
    1,  169,  170,  338,  339,  507,  508,  676,  677,  845,  846, 1014, 1015, 1183, 1184, 1352
 1353, 1521, 1522, 1690, 1691, 1859, 1860, 2028, 2029, 2197, 2198, 2366, 2367, 2535, 2536, 2704
 2705, 2873, 2874, 3042, 3043, 3211, 3212, 3380, 3381, 3549, 3550, 3718, 3719, 3887, 3888, 4056
 4057, 4225, 4226, 4394, 4395, 4563, 4564, 4732, 4733, 4901, 4902, 5070, 5071, 5239, 5240, 5408
 5409, 5577, 5578, 5746, 5747, 5915, 5916, 6084, 6085, 6253, 6254, 6422, 6423, 6591, 6592, 6760
 6761, 6929, 6930, 7098, 7099, 7267, 7268, 7436, 7437, 7605, 7606, 7774
*Elset, elset=_PickedSet53, internal, instance=hous-1
    1,  182,  183,  364,  365,  546,  547,  728,  729,  910,  911, 1092, 1093, 1274, 1275, 1456
 1457, 1638, 1639, 1820, 1821, 2002, 2003, 2184, 2185, 2366, 2367, 2548, 2549, 2730, 2731, 2912
 2913, 3094, 3095, 3276, 3277, 3458, 3459, 3640, 3641, 3822, 3823, 4004
*Elset, elset=_PickedSet53, internal, instance=comp-down-1
    1,  171,  172,  342,  343,  513,  514,  684,  685,  855,  856, 1026, 1027, 1197, 1198, 1368
 1369, 1539, 1540, 1710, 1711, 1881, 1882, 2052, 2053, 2223, 2224, 2394, 2395, 2565, 2566, 2736
 2737, 2907, 2908, 3078, 3079, 3249, 3250, 3420, 3421, 3591, 3592, 3762, 3763, 3933, 3934, 4104
 4105, 4275, 4276, 4446, 4447, 4617, 4618, 4788, 4789, 4959, 4960, 5130, 5131, 5301, 5302, 5472
 5473, 5643, 5644, 5814, 5815, 5985, 5986, 6156, 6157, 6327, 6328, 6498, 6499, 6669, 6670, 6840
 6841, 7011, 7012, 7182, 7183, 7353, 7354, 7524
*Elset, elset=_PickedSet53, internal, instance=comp-up-1
  450,  522,  594,  666,  738,  810,  882,  954, 1026, 1098, 1170, 1242, 1314, 1386, 1458, 1530
 1602, 1674, 1746, 1818, 1890, 1962, 2412, 2484, 2556, 2628, 2700, 2772, 2844, 2916, 2988, 3060
 3132, 3204, 3276, 3348, 3420, 3492, 3564, 3636, 3708, 3780, 3852, 3924, 4374, 4446, 4518, 4590
 4662, 4734, 4806, 4878, 4950, 5022, 5094, 5166, 5238, 5310, 5382, 5454, 5526, 5598, 5670, 5742
 5814, 5886, 6336, 6408, 6480, 6552, 6624, 6696, 6768, 6840, 6912, 6984, 7056, 7128, 7200, 7272
 7344, 7416, 7488, 7560, 7632, 7704, 7776, 7848
*Elset, elset=_PickedSet53, internal, instance=mand-1
    1,  168,  169,  336,  337,  504,  505,  672,  673,  840,  841, 1008, 1009, 1176, 1177, 1344
 1345, 1512, 1513, 1680, 1681, 1848, 1849, 2016, 2017, 2184, 2185, 2352, 2353, 2520, 2521, 2688
 2689, 2856, 2857, 3024, 3025, 3192, 3193, 3360, 3361, 3528, 3529, 3696
*Nset, nset=_PickedSet54, internal, instance=hous-1
    1,    2,    3,    4,    5,    6,    7,    8,    9,   10,   11,   12,   13,   14,   15,   16
   17,   18,   19,   20,   21,   22,   23,   24,   25,   26,   27,   28,   29,   30,   31,   32
   33,   34,   35,   36,   37,   38,   39,   40,   41,   42,   43,   44,   45,   46,   47,   48
   49,   50,   51,   52,   53,   54,   55,   56,   57,   58,   59,   60,   61,   62,   63,   64
   65,   66,   67,   68,   69,   70,   71,   72,   73,   74,   75,   76,   77,   78,   79,   80
   81,   82,   83,   84,   85,   86,   87,   88,   89,   90,   91,   92,   93,   94,   95,   96
   97,   98,   99,  100,  101,  102,  103,  104,  105,  106,  107,  108,  109,  110,  111,  112
  113,  114,  115,  116,  117,  118,  119,  120,  121,  122,  123,  124,  125,  126,  127,  128
  129,  130,  131,  132,  133,  134,  135,  136,  137,  138,  139,  140,  141,  142,  143,  144
  145,  146,  147,  148,  149,  150,  151,  152,  153,  154,  155,  156,  157,  158,  159,  160
  161,  162,  163,  164,  165,  166,  167,  168,  169,  170,  171,  172,  173,  174,  175,  176
  177,  178,  179,  180,  181,  182,  183, 4210, 4211, 4212, 4213, 4214, 4215, 4216, 4217, 4218
 4219, 4220, 4221, 4222, 4223, 4224, 4225, 4226, 4227, 4228, 4229, 4230, 4231, 4232, 4233, 4234
 4235, 4236, 4237, 4238, 4239, 4240, 4241, 4242, 4243, 4244, 4245, 4246, 4247, 4248, 4249, 4250
 4251, 4252, 4253, 4254, 4255, 4256, 4257, 4258, 4259, 4260, 4261, 4262, 4263, 4264, 4265, 4266
 4267, 4268, 4269, 4270, 4271, 4272, 4273, 4274, 4275, 4276, 4277, 4278, 4279, 4280, 4281, 4282
 4283, 4284, 4285, 4286, 4287, 4288, 4289, 4290, 4291, 4292, 4293, 4294, 4295, 4296, 4297, 4298
 4299, 4300, 4301, 4302, 4303, 4304, 4305, 4306, 4307, 4308, 4309, 4310, 4311, 4312, 4313, 4314
 4315, 4316, 4317, 4318, 4319, 4320, 4321, 4322, 4323, 4324, 4325, 4326, 4327, 4328, 4329, 4330
 4331, 4332, 4333, 4334, 4335, 4336, 4337, 4338, 4339, 4340, 4341, 4342, 4343, 4344, 4345, 4346
 4347, 4348, 4349, 4350, 4351, 4352, 4353, 4354, 4355, 4356, 4357, 4358, 4359, 4360, 4361, 4362
 4363, 4364, 4365, 4366, 4367, 4368, 4369, 4370, 4371, 4372, 4373, 4374, 4375, 4376, 4377, 4378
 4379, 4380, 4381, 4382, 4383, 4384, 4385, 4386, 4387, 4388, 4389, 4390, 4391, 4392
*Nset, nset=_PickedSet54, internal, instance=comp-down-1
    1,    2,    3,    4,    5,    6,    7,    8,    9,   10,   11,   12,   13,   14,   15,   16
   17,   18,   19,   20,   21,   22,   23,   24,   25,   26,   27,   28,   29,   30,   31,   32
   33,   34,   35,   36,   37,   38,   39,   40,   41,   42,   43,   44,   45,   46,   47,   48
   49,   50,   51,   52,   53,   54,   55,   56,   57,   58,   59,   60,   61,   62,   63,   64
   65,   66,   67,   68,   69,   70,   71,   72,   73,   74,   75,   76,   77,   78,   79,   80
   81,   82,   83,   84,   85,   86,   87,   88,   89,   90,   91,   92,   93,   94,   95,   96
   97,   98,   99,  100,  101,  102,  103,  104,  105,  106,  107,  108,  109,  110,  111,  112
  113,  114,  115,  116,  117,  118,  119,  120,  121,  122,  123,  124,  125,  126,  127,  128
  129,  130,  131,  132,  133,  134,  135,  136,  137,  138,  139,  140,  141,  142,  143,  144
  145,  146,  147,  148,  149,  150,  151,  152,  153,  154,  155,  156,  157,  158,  159,  160
  161,  162,  163,  164,  165,  166,  167,  168,  169,  170,  171,  172, 3957, 3958, 3959, 3960
 3961, 3962, 3963, 3964, 3965, 3966, 3967, 3968, 3969, 3970, 3971, 3972, 3973, 3974, 3975, 3976
 3977, 3978, 3979, 3980, 3981, 3982, 3983, 3984, 3985, 3986, 3987, 3988, 3989, 3990, 3991, 3992
 3993, 3994, 3995, 3996, 3997, 3998, 3999, 4000, 4001, 4002, 4003, 4004, 4005, 4006, 4007, 4008
 4009, 4010, 4011, 4012, 4013, 4014, 4015, 4016, 4017, 4018, 4019, 4020, 4021, 4022, 4023, 4024
 4025, 4026, 4027, 4028, 4029, 4030, 4031, 4032, 4033, 4034, 4035, 4036, 4037, 4038, 4039, 4040
 4041, 4042, 4043, 4044, 4045, 4046, 4047, 4048, 4049, 4050, 4051, 4052, 4053, 4054, 4055, 4056
 4057, 4058, 4059, 4060, 4061, 4062, 4063, 4064, 4065, 4066, 4067, 4068, 4069, 4070, 4071, 4072
 4073, 4074, 4075, 4076, 4077, 4078, 4079, 4080, 4081, 4082, 4083, 4084, 4085, 4086, 4087, 4088
 4089, 4090, 4091, 4092, 4093, 4094, 4095, 4096, 4097, 4098, 4099, 4100, 4101, 4102, 4103, 4104
** ... 13 like lines cut
*Nset, nset=_PickedSet54, internal, instance=comp-up-1
    3,    4,   10,   13,   15,   46,   47,   48,   49,   50,   51,   52,   53,   54,   55,   56
   57,   58,   59,   60,   61,   62,  202,  203,  204,  205,  206,  207,  208,  209,  210,  211
  212,  213,  214,  215,  216,  217,  218,  219,  220,  221,  222,  223,  224,  225,  226,  227
  228,  229,  230,  231,  232,  233,  234,  235,  236,  237,  238,  239,  240,  241,  242,  243
  244,  245,  246,  247,  248,  249,  250,  251,  252,  253,  254,  255,  256,  257,  258,  259
  260,  261,  262,  263,  264,  265,  266,  267,  268,  269,  270,  271,  272,  305,  306,  307
  308,  309,  310,  311,  312,  313,  314,  315,  316,  317,  318,  319,  320,  352,  353,  354
  355,  356,  357,  358,  359,  360,  361,  362,  363,  364,  365,  366,  367,  368,  369,  370
  371,  372,  373,  374,  375,  376,  377,  378,  379,  380,  381,  382,  383,  384,  385,  386
  387,  388,  389,  390,  391,  392,  393,  394,  395,  396,  397,  398,  399,  400,  401,  402
  403,  404,  405,  406,  407,  408,  409,  410,  411,  412,  413,  414,  415,  416,  417,  418
  419,  420,  421,  422, 4141, 4142, 4148, 4151, 4153, 4184, 4185, 4186, 4187, 4188, 4189, 4190
 4191, 4192, 4193, 4194, 4195, 4196, 4197, 4198, 4199, 4200, 4340, 4341, 4342, 4343, 4344, 4345
 4346, 4347, 4348, 4349, 4350, 4351, 4352, 4353, 4354, 4355, 4356, 4357, 4358, 4359, 4360, 4361
 4362, 4363, 4364, 4365, 4366, 4367, 4368, 4369, 4370, 4371, 4372, 4373, 4374, 4375, 4376, 4377
 4378, 4379, 4380, 4381, 4382, 4383, 4384, 4385, 4386, 4387, 4388, 4389, 4390, 4391, 4392, 4393
 4394, 4395, 4396, 4397, 4398, 4399, 4400, 4401, 4402, 4403, 4404, 4405, 4406, 4407, 4408, 4409
 4410, 4443, 4444, 4445, 4446, 4447, 4448, 4449, 4450, 4451, 4452, 4453, 4454, 4455, 4456, 4457
 4458, 4490, 4491, 4492, 4493, 4494, 4495, 4496, 4497, 4498, 4499, 4500, 4501, 4502, 4503, 4504
 4505, 4506, 4507, 4508, 4509, 4510, 4511, 4512, 4513, 4514, 4515, 4516, 4517, 4518, 4519, 4520
** ... 14 like lines cut
*Nset, nset=_PickedSet54, internal, instance=mand-1
    1,    2,    3,    4,    5,    6,    7,    8,    9,   10,   11,   12,   13,   14,   15,   16
   17,   18,   19,   20,   21,   22,   23,   24,   25,   26,   27,   28,   29,   30,   31,   32
   33,   34,   35,   36,   37,   38,   39,   40,   41,   42,   43,   44,   45,   46,   47,   48
   49,   50,   51,   52,   53,   54,   55,   56,   57,   58,   59,   60,   61,   62,   63,   64
   65,   66,   67,   68,   69,   70,   71,   72,   73,   74,   75,   76,   77,   78,   79,   80
   81,   82,   83,   84,   85,   86,   87,   88,   89,   90,   91,   92,   93,   94,   95,   96
   97,   98,   99,  100,  101,  102,  103,  104,  105,  106,  107,  108,  109,  110,  111,  112
  113,  114,  115,  116,  117,  118,  119,  120,  121,  122,  123,  124,  125,  126,  127,  128
  129,  130,  131,  132,  133,  134,  135,  136,  137,  138,  139,  140,  141,  142,  143,  144
  145,  146,  147,  148,  149,  150,  151,  152,  153,  154,  155,  156,  157,  158,  159,  160
  161,  162,  163,  164,  165,  166,  167,  168,  169, 3888, 3889, 3890, 3891, 3892, 3893, 3894
 3895, 3896, 3897, 3898, 3899, 3900, 3901, 3902, 3903, 3904, 3905, 3906, 3907, 3908, 3909, 3910
 3911, 3912, 3913, 3914, 3915, 3916, 3917, 3918, 3919, 3920, 3921, 3922, 3923, 3924, 3925, 3926
 3927, 3928, 3929, 3930, 3931, 3932, 3933, 3934, 3935, 3936, 3937, 3938, 3939, 3940, 3941, 3942
 3943, 3944, 3945, 3946, 3947, 3948, 3949, 3950, 3951, 3952, 3953, 3954, 3955, 3956, 3957, 3958
 3959, 3960, 3961, 3962, 3963, 3964, 3965, 3966, 3967, 3968, 3969, 3970, 3971, 3972, 3973, 3974
 3975, 3976, 3977, 3978, 3979, 3980, 3981, 3982, 3983, 3984, 3985, 3986, 3987, 3988, 3989, 3990
 3991, 3992, 3993, 3994, 3995, 3996, 3997, 3998, 3999, 4000, 4001, 4002, 4003, 4004, 4005, 4006
 4007, 4008, 4009, 4010, 4011, 4012, 4013, 4014, 4015, 4016, 4017, 4018, 4019, 4020, 4021, 4022
 4023, 4024, 4025, 4026, 4027, 4028, 4029, 4030, 4031, 4032, 4033, 4034, 4035, 4036, 4037, 4038
 4039, 4040, 4041, 4042, 4043, 4044, 4045, 4046, 4047, 4048, 4049, 4050, 4051, 4052, 4053, 4054
 4055, 4056
*Elset, elset=_PickedSet54, internal, instance=hous-1, generate
   1,  182,    1
*Elset, elset=_PickedSet54, internal, instance=comp-down-1
    1,    2,    3,    4,    5,    6,    7,    8,    9,   10,   11,   12,   13,   14,   15,   16
   17,   18,   19,   20,   21,   22,   23,   24,   25,   26,   27,   28,   29,   30,   31,   32
   33,   34,   35,   36,   37,   38,   39,   40,   41,   42,   43,   44,   45,   46,   47,   48
   49,   50,   51,   52,   53,   54,   55,   56,   57,   58,   59,   60,   61,   62,   63,   64
   65,   66,   67,   68,   69,   70,   71,   72,   73,   74,   75,   76,   77,   78,   79,   80
   81,   82,   83,   84,   85,   86,   87,   88,   89,   90,   91,   92,   93,   94,   95,   96
   97,   98,   99,  100,  101,  102,  103,  104,  105,  106,  107,  108,  109,  110,  111,  112
  113,  114,  115,  116,  117,  118,  119,  120,  121,  122,  123,  124,  125,  126,  127,  128
  129,  130,  131,  132,  133,  134,  135,  136,  137,  138,  139,  140,  141,  142,  143,  144
  145,  146,  147,  148,  149,  150,  151,  152,  153,  154,  155,  156,  157,  158,  159,  160
  161,  162,  163,  164,  165,  166,  167,  168,  169,  170,  171, 3763, 3764, 3765, 3766, 3767
 3768, 3769, 3770, 3771, 3772, 3773, 3774, 3775, 3776, 3777, 3778, 3779, 3780, 3781, 3782, 3783
 3784, 3785, 3786, 3787, 3788, 3789, 3790, 3791, 3792, 3793, 3794, 3795, 3796, 3797, 3798, 3799
 3800, 3801, 3802, 3803, 3804, 3805, 3806, 3807, 3808, 3809, 3810, 3811, 3812, 3813, 3814, 3815
 3816, 3817, 3818, 3819, 3820, 3821, 3822, 3823, 3824, 3825, 3826, 3827, 3828, 3829, 3830, 3831
 3832, 3833, 3834, 3835, 3836, 3837, 3838, 3839, 3840, 3841, 3842, 3843, 3844, 3845, 3846, 3847
 3848, 3849, 3850, 3851, 3852, 3853, 3854, 3855, 3856, 3857, 3858, 3859, 3860, 3861, 3862, 3863
 3864, 3865, 3866, 3867, 3868, 3869, 3870, 3871, 3872, 3873, 3874, 3875, 3876, 3877, 3878, 3879
 3880, 3881, 3882, 3883, 3884, 3885, 3886, 3887, 3888, 3889, 3890, 3891, 3892, 3893, 3894, 3895
 3896, 3897, 3898, 3899, 3900, 3901, 3902, 3903, 3904, 3905, 3906, 3907, 3908, 3909, 3910, 3911
 3912, 3913, 3914, 3915, 3916, 3917, 3918, 3919, 3920, 3921, 3922, 3923, 3924, 3925, 3926, 3927
 3928, 3929, 3930, 3931, 3932, 3933
*Elset, elset=_PickedSet54, internal, instance=comp-up-1
   55,   62,   69,   76,   83,   90,   97,  104,  111,  118,  125,  132,  139,  146,  153,  154
  155,  156, 1891, 1892, 1893, 1894, 1895, 1896, 1897, 1898, 1899, 1900, 1901, 1902, 1903, 1904
 1905, 1906, 1907, 1908, 1909, 1910, 1911, 1912, 1913, 1914, 1915, 1916, 1917, 1918, 1919, 1920
 1921, 1922, 1923, 1924, 1925, 1926, 1927, 1928, 1929, 1930, 1931, 1932, 1933, 1934, 1935, 1936
 1937, 1938, 1939, 1940, 1941, 1942, 1943, 1944, 1945, 1946, 1947, 1948, 1949, 1950, 1951, 1952
 1953, 1954, 1955, 1956, 1957, 1958, 1959, 1960, 1961, 1962, 2051, 2058, 2059, 2060, 2061, 2062
 2063, 2064, 2065, 2066, 2067, 2068, 2069, 2070, 2071, 2072, 2073, 2341, 2342, 2343, 2344, 2345
 2346, 2347, 2348, 2349, 2350, 2351, 2352, 2353, 2354, 2355, 2356, 2357, 2358, 2359, 2360, 2361
 2362, 2363, 2364, 2365, 2366, 2367, 2368, 2369, 2370, 2371, 2372, 2373, 2374, 2375, 2376, 2377
 2378, 2379, 2380, 2381, 2382, 2383, 2384, 2385, 2386, 2387, 2388, 2389, 2390, 2391, 2392, 2393
 2394, 2395, 2396, 2397, 2398, 2399, 2400, 2401, 2402, 2403, 2404, 2405, 2406, 2407, 2408, 2409
 2410, 2411, 2412, 3979, 3986, 3993, 4000, 4007, 4014, 4021, 4028, 4035, 4042, 4049, 4056, 4063
 4070, 4077, 4078, 4079, 4080, 5815, 5816, 5817, 5818, 5819, 5820, 5821, 5822, 5823, 5824, 5825
 5826, 5827, 5828, 5829, 5830, 5831, 5832, 5833, 5834, 5835, 5836, 5837, 5838, 5839, 5840, 5841
 5842, 5843, 5844, 5845, 5846, 5847, 5848, 5849, 5850, 5851, 5852, 5853, 5854, 5855, 5856, 5857
 5858, 5859, 5860, 5861, 5862, 5863, 5864, 5865, 5866, 5867, 5868, 5869, 5870, 5871, 5872, 5873
 5874, 5875, 5876, 5877, 5878, 5879, 5880, 5881, 5882, 5883, 5884, 5885, 5886, 5975, 5982, 5983
 5984, 5985, 5986, 5987, 5988, 5989, 5990, 5991, 5992, 5993, 5994, 5995, 5996, 5997, 6265, 6266
 6267, 6268, 6269, 6270, 6271, 6272, 6273, 6274, 6275, 6276, 6277, 6278, 6279, 6280, 6281, 6282
 6283, 6284, 6285, 6286, 6287, 6288, 6289, 6290, 6291, 6292, 6293, 6294, 6295, 6296, 6297, 6298
 6299, 6300, 6301, 6302, 6303, 6304, 6305, 6306, 6307, 6308, 6309, 6310, 6311, 6312, 6313, 6314
 6315, 6316, 6317, 6318, 6319, 6320, 6321, 6322, 6323, 6324, 6325, 6326, 6327, 6328, 6329, 6330
 6331, 6332, 6333, 6334, 6335, 6336
*Elset, elset=_PickedSet54, internal, instance=mand-1, generate
   1,  168,    1
*Nset, nset=_PickedSet80, internal, instance=comp-up-1
 8286, 8291
*Elset, elset=_CP-2-comp-up-1_S1, internal, instance=comp-up-1, generate
    1,  3924,     1
*Surface, type=ELEMENT, name=CP-2-comp-up-1
_CP-2-comp-up-1_S1, S1
*Elset, elset=_CP-2-hous-1_S2, internal, instance=hous-1, generate
    1,  4004,     1
*Surface, type=ELEMENT, name=CP-2-hous-1
_CP-2-hous-1_S2, S2
*Elset, elset=_CP-4-comp-down-1_S1, internal, instance=comp-down-1, generate
 3763,  7524,     1
*Surface, type=ELEMENT, name=CP-4-comp-down-1
_CP-4-comp-down-1_S1, S1
*Elset, elset=_CP-4-comp-up-1_S2, internal, instance=comp-up-1, generate
 3925,  7848,     1
*Surface, type=ELEMENT, name=CP-4-comp-up-1
_CP-4-comp-up-1_S2, S2
*Elset, elset=_CP-4-hous-1_S2, internal, instance=hous-1, generate
    1,  4004,     1
*Surface, type=ELEMENT, name=CP-4-hous-1
_CP-4-hous-1_S2, S2
*Elset, elset=_CP-5-comp-down-1_S2, internal, instance=comp-down-1, generate
    1,  3762,     1
*Surface, type=ELEMENT, name=CP-5-comp-down-1
_CP-5-comp-down-1_S2, S2
*Elset, elset=_CP-5-mand-1_S1, internal, instance=mand-1, generate
    1,  3696,     1
*Surface, type=ELEMENT, name=CP-5-mand-1
_CP-5-mand-1_S1, S1
*Elset, elset=__PickedSurf52_S1, internal, instance=hous-1, generate
    1,  4004,     1
*Elset, elset=__PickedSurf52_S2, internal, instance=mand-1, generate
    1,  3696,     1
*Surface, type=ELEMENT, name=_PickedSurf52, internal
__PickedSurf52_S1, S1
__PickedSurf52_S2, S2
*Elset, elset=__Int-1_gcs0_1_S1, internal, instance=hous-1, generate
    1,  4004,     1
*Surface, type=ELEMENT, name=_Int-1_gcs0_1, internal
__Int-1_gcs0_1_S1, S1
*Elset, elset=__Int-1_gcs0_3_S2, internal, instance=hous-1, generate
    1,  4004,     1
*Surface, type=ELEMENT, name=_Int-1_gcs0_3, internal
__Int-1_gcs0_3_S2, S2
*Elset, elset=__Int-1_gcs0_7_S1, internal, instance=comp-down-1, generate
 3763,  7524,     1
*Surface, type=ELEMENT, name=_Int-1_gcs0_7, internal
__Int-1_gcs0_7_S1, S1
*Elset, elset=__Int-1_gcs0_9_S2, internal, instance=comp-down-1, generate
    1,  3762,     1
*Surface, type=ELEMENT, name=_Int-1_gcs0_9, internal
__Int-1_gcs0_9_S2, S2
*Elset, elset=__Int-1_gcs0_13_S5, internal, instance=comp-up-1
    1,    2,    3,  258,  259, 2043, 2044, 2164, 2165, 2166, 3925, 3926, 3927, 4182, 4183, 5967
 5968, 6088, 6089, 6090
*Elset, elset=__Int-1_gcs0_13_S4, internal, instance=comp-up-1
  175,  176,  177,  253,  254,  255,  256,  257, 2038, 2039, 2040, 2041, 2042, 2338, 2339, 2340
 4099, 4100, 4101, 4177, 4178, 4179, 4180, 4181, 5962, 5963, 5964, 5965, 5966, 6262, 6263, 6264
*Surface, type=ELEMENT, name=_Int-1_gcs0_13, internal
__Int-1_gcs0_13_S5, S5
__Int-1_gcs0_13_S4, S4
*Elset, elset=__Int-1_gcs0_14_S1, internal, instance=comp-up-1, generate
    1,  3924,     1
*Surface, type=ELEMENT, name=_Int-1_gcs0_14, internal
__Int-1_gcs0_14_S1, S1
*Elset, elset=__Int-1_gcs0_16_S2, internal, instance=comp-up-1, generate
 3925,  7848,     1
*Surface, type=ELEMENT, name=_Int-1_gcs0_16, internal
__Int-1_gcs0_16_S2, S2
*Elset, elset=__Int-1_gcs0_20_S1, internal, instance=mand-1, generate
    1,  3696,     1
*Surface, type=ELEMENT, name=_Int-1_gcs0_20, internal
__Int-1_gcs0_20_S1, S1
*Elset, elset=__Int-1_gcs0_22_S2, internal, instance=mand-1, generate
    1,  3696,     1
*Surface, type=ELEMENT, name=_Int-1_gcs0_22, internal
__Int-1_gcs0_22_S2, S2
*End Assembly
** 
** MATERIALS
** 
*Material, name="alloy 625"
*Density
8440.,
*Elastic
 2.07e+11, 0.3
*Material, name=mc
*Density
2007.,
*Elastic
 2.055e+10, 0.2
** 
** INTERACTION PROPERTIES
** 
*Surface Interaction, name=IntProp-1
1.,
*Friction, rough
*Surface Behavior, pressure-overclosure=HARD
** 
** BOUNDARY CONDITIONS
** 
** Name: BC-1 Type: Symmetry/Antisymmetry/Encastre
*Boundary
_PickedSet53, XSYMM
** Name: BC-3 Type: Symmetry/Antisymmetry/Encastre
*Boundary
_PickedSet80, ENCASTRE
** 
** INTERACTIONS
** 
** Interaction: Int-1
*Contact
*Contact Inclusions, ALL EXTERIOR
*Contact Property Assignment
 ,  , IntProp-1
*Surface Property Assignment, property=GEOMETRIC CORRECTION
_Int-1_gcs0_1, Circumferential, 0., 0., 0.,  0., 0., 1.
_Int-1_gcs0_3, Circumferential, 0., 0., 0.,  0., 0., 1.
_Int-1_gcs0_7, Circumferential, 0., 0., 0.,  0., 0., 1.
_Int-1_gcs0_9, Circumferential, 0., 0., 0.,  0., 0., 1.
_Int-1_gcs0_13, Circumferential, 0.288, 0., 0.0555,  -0.712, 0., 0.0555
_Int-1_gcs0_14, Circumferential, 0., 0., 0.,  0., 0., 1.
_Int-1_gcs0_16, Circumferential, 0., 0., 0.,  0., 0., 1.
_Int-1_gcs0_20, Circumferential, 0., 0., 0.,  0., 0., 1.
_Int-1_gcs0_22, Circumferential, 0., 0., 0.,  0., 0., 1.
** ----------------------------------------------------------------
** 
** STEP: Step-1
** 
*Step, name=Step-1, nlgeom=NO
*Static
1., 1., 1e-05, 1.
** 
** LOADS
** 
** Name: Load-1   Type: Pressure
*Dsload
_PickedSurf52, P, 1.03421e+08
** 
** OUTPUT REQUESTS
** 
*Restart, write, frequency=0
** 
** FIELD OUTPUT: F-Output-1
** 
*Output, field
*Node Output
U, 
*Element Output, directions=YES
S, 
** 
** HISTORY OUTPUT: H-Output-1
** 
*Output, history, variable=PRESELECT
*End Step
