*Heading
** Job name: Job-1 Model name: Model-1
** Generated by: Abaqus/CAE 6.14-2
*Preprint, echo=NO, model=NO, history=NO, contact=NO
**
** PARTS
**
*Part, name=Part-2
*Node
      1,           0.,           0.
      2, 0.0100049051,  5.00503156e-05
      3, 0.0200088099, 0.000200196257
      4, 0.0300107095, 0.000450422784
      5, 0.0400096066, 0.000800704875
      6, 0.0500044972, 0.00125100743
      7, 0.0599943846, 0.00180128543
      8,  0.069978267, 0.00245148363
      9, 0.0799551383, 0.0032015373
     10, 0.0899240151, 0.00405137101
     11, 0.0998838842, 0.00500089955
     12,  0.109833755, 0.00605002837
     13,  0.119772635, 0.00719865225
     14,  0.129699528, 0.00844665617
     15,  0.139613435, 0.00979391485
     16,  0.149513364, 0.0112402942
     17,  0.159398317, 0.0127856489
     18,  0.169267327, 0.0144298244
     19,  0.179119393, 0.0161726568
     20,  0.188953534, 0.0180139691
** ... 608 like lines cut
*Element, type=R2D2
  1,   1,   2
  2,   2,   3
  3,   3,   4
  4,   4,   5
  5,   5,   6
  6,   6,   7
  7,   7,   8
  8,   8,   9
  9,   9,  10
 10,  10,  11
 11,  11,  12
 12,  12,  13
 13,  13,  14
 14,  14,  15
 15,  15,  16
 16,  16,  17
 17,  17,  18
 18,  18,  19
 19,  19,  20
 20,  20,  21
** ... 608 like lines cut
*Node
    629,           0.,           1.,           0.
*Nset, nset=Part-2-RefPt_, internal
629, 
*Elset, elset=Part-2, generate
   1,  628,    1
*End Part
**  
*Part, name=solid
*Node
      1,          2.5,          -5.
      2,          2.5,           0.
      3,         -2.5,           0.
      4,         -2.5,          -5.
      5,         -20.,           0.
      6,         -20.,         -20.
      7,          20.,         -20.
      8,          20.,           0.
      9,          2.5,  -4.94999981
     10,          2.5,   -4.9000001
     11,          2.5,   -4.8499999
     12,          2.5,  -4.80000019
     13,          2.5,        -4.75
     14,          2.5,  -4.69999981
     15,          2.5,   -4.6500001
     16,          2.5,   -4.5999999
     17,          2.5,  -4.55000019
     18,          2.5,         -4.5
     19,          2.5,  -4.44999981
     20,          2.5,   -4.4000001
** ... 25800 like lines cut
*Element, type=CPE4R
    1,     1,     9,   634,   404
    2,     9,    10,   635,   634
    3,    10,    11,   636,   635
    4,    11,    12,   637,   636
    5,    12,    13,   638,   637
    6,    13,    14,   639,   638
    7,    14,    15,   640,   639
    8,    15,    16,   641,   640
    9,    16,    17,   642,   641
   10,    17,    18,   643,   642
   11,    18,    19,   644,   643
   12,    19,    20,   645,   644
   13,    20,    21,   646,   645
   14,    21,    22,   647,   646
   15,    22,    23,   648,   647
   16,    23,    24,   649,   648
   17,    24,    25,   650,   649
   18,    25,    26,   651,   650
   19,    26,    27,   652,   651
   20,    27,    28,   653,   652
** ... 25417 like lines cut
*Element, type=CPE3
10001, 25140, 20192, 20178
10002, 21941, 20882, 20992
10003, 23780, 23771, 23815
10004, 24064, 23830, 23726
10005, 23699, 23684, 23676
10006, 19432, 19370, 10863
10007, 19856, 10625, 19820
10008, 23467, 23407, 23275
10009, 19461, 19429, 19415
10010, 23804, 10952, 23744
10011, 11384, 23959, 23953
10012, 22034, 22520, 22312
10013, 23818, 11595, 23785
10014, 23442, 23588, 23634
10015, 23249, 10557, 23099
10016, 24160, 10571, 10570
10017, 20368, 20330, 20226
10018, 25172, 21199, 21266
10019, 24171, 23406, 10510
10020, 24242, 10514, 10515
** ... 410 like lines cut
*Nset, nset=_PickedSet2, internal, generate
     1,  25820,      1
*Elset, elset=_PickedSet2, internal, generate
     1,  25867,      1
** Section: Section-1
*Solid Section, elset=_PickedSet2, material=Material-1
1.,
*End Part
**  
**
** ASSEMBLY
**
*Assembly, name=Assembly
**  
*Instance, name=Part-2-1, part=Part-2
*End Instance
**  
*Instance, name=solid-1, part=solid
*End Instance
**  
*Nset, nset=Set-1, instance=Part-2-1
 629,
*Nset, nset=_PickedSet12, internal, instance=solid-1
   6,   7, 480, 481, 482, 483, 484, 485, 486, 487, 488, 489, 490, 491, 492, 493
 494, 495, 496, 497, 498, 499, 500, 501, 502, 503, 504, 505, 506, 507, 508, 509
 510, 511, 512, 513, 514, 515, 516, 517, 518, 519, 520, 521, 522, 523, 524, 525
 526, 527, 528, 529, 530, 531, 532, 533, 534, 535, 536, 537, 538, 539, 540, 541
 542, 543, 544, 545, 546, 547, 548, 549, 550, 551, 552, 553, 554, 555, 556, 557
 558,
*Elset, elset=_PickedSet12, internal, instance=solid-1
 10476, 10477, 10478, 10479, 10480, 10481, 10482, 10483, 10484, 10485, 10486, 10487, 10488, 10489, 10490, 10491
 10492, 10493, 10494, 10495, 10496, 10497, 10498, 10499, 10500, 10501, 10502, 10503, 10504, 10505, 10506, 10507
 10508, 10509, 10510, 10511, 10512, 10513, 10514, 10515, 10516, 10517, 10518, 10519, 10520, 10521, 10522, 10523
 10524, 10525, 10526, 10527, 10528, 10529, 11031, 11032, 11033, 11034, 11035, 11036, 11037, 11038, 11039, 11040
 11041, 11042, 11043, 11044, 11046, 11049, 11050, 11100, 13424, 13425, 13426, 13427, 13428, 13429, 13430, 23740
*Nset, nset=_PickedSet13, internal, instance=Part-2-1
 629,
*Elset, elset=__PickedSurf7_SNEG, internal, instance=Part-2-1, generate
   1,  628,    1
*Surface, type=ELEMENT, name=_PickedSurf7, internal
__PickedSurf7_SNEG, SNEG
*Elset, elset=__PickedSurf8_S2, internal, instance=solid-1, generate
   100,  10000,    100
*Surface, type=ELEMENT, name=_PickedSurf8, internal
__PickedSurf8_S2, S2
*Rigid Body, ref node=Part-2-1.Part-2-RefPt_, elset=Part-2-1.Part-2
*End Assembly
** 
** MATERIALS
** 
*Material, name=Material-1
*Depvar
      1,
*Elastic, dependencies=1
19, 0.4, ,  0.
3, 0.4, ,  1.
*User Defined Field
** 
** INTERACTION PROPERTIES
** 
*Surface Interaction, name=IntProp-1
1.,
*Friction
0.,
*Surface Behavior, pressure-overclosure=HARD
** 
** INTERACTIONS
** 
** Interaction: Int-1
*Contact Pair, interaction=IntProp-1, type=SURFACE TO SURFACE
_PickedSurf8, _PickedSurf7
** ----------------------------------------------------------------
** 
** STEP: Step-1
** 
*Step, name=Step-1, nlgeom=NO
*Static
1., 1., 1e-05, 1.
** 
** OUTPUT REQUESTS
** 
*Restart, write, frequency=0
** 
** FIELD OUTPUT: F-Output-1
** 
*Output, field
*Node Output
CF, RF, U
*Element Output, directions=YES
FV, LE, PE, PEEQ, PEMAG, S
*Contact Output
CDISP, CSTRESS
** 
** HISTORY OUTPUT: H-Output-1
** 
*Output, history, variable=PRESELECT
*End Step
** ----------------------------------------------------------------
** 
** STEP: Step-2
** 
*Step, name=Step-2, nlgeom=NO
*Static
1., 1., 1e-05, 1.
** 
** BOUNDARY CONDITIONS
** 
** Name: BC-1 Type: Symmetry/Antisymmetry/Encastre
*Boundary
_PickedSet12, ENCASTRE
** Name: BC-2 Type: Displacement/Rotation
*Boundary
_PickedSet13, 1, 1
_PickedSet13, 2, 2, -0.0625
_PickedSet13, 6, 6
** 
** OUTPUT REQUESTS
** 
*Restart, write, frequency=0
** 
** FIELD OUTPUT: F-Output-1
** 
*Output, field
*Node Output
CF, RF, U
*Element Output, directions=YES
FV, LE, PE, PEEQ, PEMAG, S
*Contact Output
CDISP, CSTRESS
** 
** HISTORY OUTPUT: H-Output-2
** 
*Output, history
*Node Output, nset=Set-1
RF2,
*Node PRINT, nset=Set-1, SUMMARY=NO
RF2 
** 
** HISTORY OUTPUT: H-Output-1
** 
*Output, history, variable=PRESELECT
*End Step
